*SPEF "IEEE 1481-1998"
*DESIGN "FIFO"
*DATE "Mon Nov 10 21:47:13 2025"
*VENDOR "Cadence Design Systems, Inc."
*PROGRAM "Innovus"
*VERSION "20.10-p004_1"
*DESIGN_FLOW "COUPLING C" "PIN_CAP NONE" "NAME_SCOPE LOCAL"
*DIVIDER /
*DELIMITER :
*BUS_DELIMITER []
*T_UNIT 1 NS
*C_UNIT 1 PF
*R_UNIT 1 OHM
*L_UNIT 1 HENRY

// MMMC spef file for corner 'default_rc_corner'

*NAME_MAP

*1 fifomem/FE_PHN92_wdata_3
*2 fifomem/FE_PHN91_wdata_2
*3 fifomem/FE_PHN90_wdata_6
*4 fifomem/FE_PHN89_wdata_1
*5 fifomem/FE_PHN88_wdata_4
*6 fifomem/FE_PHN87_wdata_1
*7 fifomem/FE_PHN86_wdata_4
*8 fifomem/FE_PHN85_wdata_5
*9 fifomem/FE_PHN84_wdata_0
*10 fifomem/FE_PHN83_wdata_7
*11 fifomem/FE_PHN82_wdata_3
*12 FE_PHN81_rrst_n
*13 FE_PHN80_wrst_n
*14 wptr_full_inst/FE_OCPN78_n_8
*15 fifomem/FE_OCPN77_n_29
*16 fifomem/FE_OCPN76_n_27
*17 fifomem/FE_OCPN75_waddr_0
*18 fifomem/FE_RN_1
*19 wptr_full_inst/FE_RN_55_0
*20 fifomem/FE_RN_54_0
*21 wptr_full_inst/FE_OCPN48_wptr_1
*22 fifomem/FE_OCPN74_n_7
*23 wptr_full_inst/FE_RN_3
*24 fifomem/FE_OCPN47_n_25
*25 wptr_full_inst/FE_RN_53_0
*26 wptr_full_inst/FE_RN_52_0
*27 FE_OCPN46_waddr_2
*28 fifomem/FE_OCPN73_n_4
*29 wptr_full_inst/FE_RN_51_0
*30 wptr_full_inst/FE_RN_50_0
*31 wptr_full_inst/FE_RN_49_0
*32 wptr_full_inst/FE_RN_48_0
*33 fifomem/FE_OCPN45_n_27
*34 wptr_full_inst/FE_OCPN72_waddr_1
*35 wptr_full_inst/FE_RN_47_0
*36 wptr_full_inst/FE_RN_2
*37 fifomem/FE_OCPN44_n_31
*38 fifomem/FE_OCPN43_n_4
*39 fifomem/FE_OCPN42_n_23
*40 fifomem/CTS_1
*41 CTS_1
*42 wptr_full_inst/FE_RN_45_0
*43 wptr_full_inst/FE_RN_44_0
*44 fifomem/FE_OCPN38_n_8
*45 fifomem/FE_RN_43_0
*46 wptr_full_inst/FE_RN_41_0
*47 wptr_full_inst/FE_RN_39_0
*48 wptr_full_inst/FE_RN_37_0
*49 wptr_full_inst/FE_RN_36_0
*50 wptr_full_inst/FE_RN_35_0
*51 wptr_full_inst/FE_RN_34_0
*52 wptr_full_inst/FE_RN_33_0
*53 wptr_full_inst/FE_RN_1
*54 fifomem/FE_RN_32_0
*55 wptr_full_inst/FE_RN_31_0
*56 wptr_full_inst/FE_RN_28_0
*57 wptr_full_inst/FE_RN_27_0
*58 wptr_full_inst/FE_RN_26_0
*59 wptr_full_inst/FE_RN_25_0
*60 wptr_full_inst/FE_RN_24_0
*61 wptr_full_inst/FE_RN_22_0
*62 wptr_full_inst/FE_RN_21_0
*63 fifomem/FE_RN_20_0
*64 wptr_full_inst/FE_RN_19_0
*65 wptr_full_inst/FE_RN_18_0
*66 wptr_full_inst/FE_OCPN36_wptr_3
*67 fifomem/FE_OCPN35_n_17
*68 FE_OCPN12_FE_OFN10_FE_OFN8_wfull
*69 fifomem/FE_OCPN34_n_24
*70 wptr_full_inst/FE_OCPN32_wptr_2
*71 wptr_full_inst/FE_OCPN31_n_30
*72 wptr_full_inst/FE_OCPN30_n_30
*73 fifomem/FE_OCPN27_n_21
*74 fifomem/FE_OCPN25_n_0
*75 wptr_full_inst/FE_RN_10_0
*76 wptr_full_inst/FE_RN_9_0
*77 wptr_full_inst/FE_RN_8_0
*78 wptr_full_inst/FE_OCPN19_wptr_4
*79 wptr_full_inst/FE_OCPN18_waddr_3
*80 fifomem/FE_OCPN17_waddr_0
*81 wptr_full_inst/FE_RN_1_0
*82 wptr_full_inst/FE_OFN15_n_30
*83 wptr_full_inst/FE_OFN14_n_17
*84 fifomem/FE_OFN13_n_19
*85 fifomem/FE_OFN12_n_1
*86 fifomem/FE_OFN11_raddr_0
*87 FE_OFN10_FE_OFN8_wfull
*88 rptr_empty_inst/FE_OFN9_rempty
*89 FE_OFN7_rdata_0
*90 FE_OFN6_rdata_1
*91 FE_OFN5_rdata_2
*92 FE_OFN4_rdata_3
*93 FE_OFN3_rdata_4
*94 FE_OFN2_rdata_5
*95 FE_OFN1_rdata_6
*96 FE_OFN0_rdata_7
*97 wdata[7]
*98 wdata[6]
*99 wdata[5]
*100 wdata[4]
*101 wdata[3]
*102 wdata[2]
*103 wdata[1]
*104 wdata[0]
*105 winc
*106 wclk
*107 wrst_n
*108 rinc
*109 rclk
*110 rrst_n
*111 rdata[7]
*112 rdata[6]
*113 rdata[5]
*114 rdata[4]
*115 rdata[3]
*116 rdata[2]
*117 rdata[1]
*118 rdata[0]
*119 wfull
*120 rempty
*121 waddr[3]
*122 waddr[2]
*123 waddr[1]
*124 waddr[0]
*125 raddr[3]
*126 raddr[2]
*127 raddr[1]
*128 raddr[0]
*129 rdata_raw[7]
*130 rdata_raw[6]
*131 rdata_raw[5]
*132 rdata_raw[4]
*133 rdata_raw[3]
*134 rdata_raw[2]
*135 rdata_raw[1]
*136 rdata_raw[0]
*137 rq2_wptr[4]
*138 rq2_wptr[3]
*139 rq2_wptr[2]
*140 rq2_wptr[1]
*141 rq2_wptr[0]
*142 rptr[4]
*143 rptr[3]
*144 rptr[2]
*145 rptr[1]
*146 rptr[0]
*147 wq2_rptr[4]
*148 wq2_rptr[3]
*149 wq2_rptr[2]
*150 wq2_rptr[1]
*151 wq2_rptr[0]
*152 wptr[4]
*153 wptr[3]
*154 wptr[2]
*155 wptr[1]
*156 wptr[0]
*157 fifomem/mem\[6\][7]
*158 fifomem/mem\[6\][6]
*159 fifomem/mem\[6\][5]
*160 fifomem/mem\[6\][4]
*161 fifomem/mem\[6\][3]
*162 fifomem/mem\[6\][2]
*163 fifomem/mem\[6\][1]
*164 fifomem/mem\[6\][0]
*165 fifomem/mem\[14\][7]
*166 fifomem/mem\[14\][6]
*167 fifomem/mem\[14\][5]
*168 fifomem/mem\[14\][4]
*169 fifomem/mem\[14\][3]
*170 fifomem/mem\[14\][2]
*171 fifomem/mem\[14\][1]
*172 fifomem/mem\[14\][0]
*173 fifomem/mem\[7\][7]
*174 fifomem/mem\[7\][6]
*175 fifomem/mem\[7\][5]
*176 fifomem/mem\[7\][4]
*177 fifomem/mem\[7\][3]
*178 fifomem/mem\[7\][2]
*179 fifomem/mem\[7\][1]
*180 fifomem/mem\[7\][0]
*181 fifomem/mem\[15\][7]
*182 fifomem/mem\[15\][6]
*183 fifomem/mem\[15\][5]
*184 fifomem/mem\[15\][4]
*185 fifomem/mem\[15\][3]
*186 fifomem/mem\[15\][2]
*187 fifomem/mem\[15\][1]
*188 fifomem/mem\[15\][0]
*189 fifomem/mem\[2\][7]
*190 fifomem/mem\[2\][6]
*191 fifomem/mem\[2\][5]
*192 fifomem/mem\[2\][4]
*193 fifomem/mem\[2\][3]
*194 fifomem/mem\[2\][2]
*195 fifomem/mem\[2\][1]
*196 fifomem/mem\[2\][0]
*197 fifomem/mem\[10\][7]
*198 fifomem/mem\[10\][6]
*199 fifomem/mem\[10\][5]
*200 fifomem/mem\[10\][4]
*201 fifomem/mem\[10\][3]
*202 fifomem/mem\[10\][2]
*203 fifomem/mem\[10\][1]
*204 fifomem/mem\[10\][0]
*205 fifomem/mem\[3\][7]
*206 fifomem/mem\[3\][6]
*207 fifomem/mem\[3\][5]
*208 fifomem/mem\[3\][4]
*209 fifomem/mem\[3\][3]
*210 fifomem/mem\[3\][2]
*211 fifomem/mem\[3\][1]
*212 fifomem/mem\[3\][0]
*213 fifomem/mem\[11\][7]
*214 fifomem/mem\[11\][6]
*215 fifomem/mem\[11\][5]
*216 fifomem/mem\[11\][4]
*217 fifomem/mem\[11\][3]
*218 fifomem/mem\[11\][2]
*219 fifomem/mem\[11\][1]
*220 fifomem/mem\[11\][0]
*221 fifomem/mem\[4\][7]
*222 fifomem/mem\[4\][6]
*223 fifomem/mem\[4\][5]
*224 fifomem/mem\[4\][4]
*225 fifomem/mem\[4\][3]
*226 fifomem/mem\[4\][2]
*227 fifomem/mem\[4\][1]
*228 fifomem/mem\[4\][0]
*229 fifomem/mem\[12\][7]
*230 fifomem/mem\[12\][6]
*231 fifomem/mem\[12\][5]
*232 fifomem/mem\[12\][4]
*233 fifomem/mem\[12\][3]
*234 fifomem/mem\[12\][2]
*235 fifomem/mem\[12\][1]
*236 fifomem/mem\[12\][0]
*237 fifomem/mem\[5\][7]
*238 fifomem/mem\[5\][6]
*239 fifomem/mem\[5\][5]
*240 fifomem/mem\[5\][4]
*241 fifomem/mem\[5\][3]
*242 fifomem/mem\[5\][2]
*243 fifomem/mem\[5\][1]
*244 fifomem/mem\[5\][0]
*245 fifomem/mem\[13\][7]
*246 fifomem/mem\[13\][6]
*247 fifomem/mem\[13\][5]
*248 fifomem/mem\[13\][4]
*249 fifomem/mem\[13\][3]
*250 fifomem/mem\[13\][2]
*251 fifomem/mem\[13\][1]
*252 fifomem/mem\[13\][0]
*253 fifomem/mem\[0\][7]
*254 fifomem/mem\[0\][6]
*255 fifomem/mem\[0\][5]
*256 fifomem/mem\[0\][4]
*257 fifomem/mem\[0\][3]
*258 fifomem/mem\[0\][2]
*259 fifomem/mem\[0\][1]
*260 fifomem/mem\[0\][0]
*261 fifomem/mem\[8\][7]
*262 fifomem/mem\[8\][6]
*263 fifomem/mem\[8\][5]
*264 fifomem/mem\[8\][4]
*265 fifomem/mem\[8\][3]
*266 fifomem/mem\[8\][2]
*267 fifomem/mem\[8\][1]
*268 fifomem/mem\[8\][0]
*269 fifomem/mem\[1\][7]
*270 fifomem/mem\[1\][6]
*271 fifomem/mem\[1\][5]
*272 fifomem/mem\[1\][4]
*273 fifomem/mem\[1\][3]
*274 fifomem/mem\[1\][2]
*275 fifomem/mem\[1\][1]
*276 fifomem/mem\[1\][0]
*277 fifomem/mem\[9\][7]
*278 fifomem/mem\[9\][6]
*279 fifomem/mem\[9\][5]
*280 fifomem/mem\[9\][4]
*281 fifomem/mem\[9\][3]
*282 fifomem/mem\[9\][2]
*283 fifomem/mem\[9\][1]
*284 fifomem/mem\[9\][0]
*285 fifomem/n_0
*286 fifomem/n_1
*287 fifomem/n_2
*288 fifomem/n_4
*289 fifomem/n_5
*290 fifomem/n_6
*291 fifomem/n_7
*292 fifomem/n_8
*293 fifomem/n_10
*294 fifomem/n_11
*295 fifomem/n_12
*296 fifomem/n_13
*297 fifomem/n_15
*298 fifomem/n_16
*299 fifomem/n_17
*300 fifomem/n_18
*301 fifomem/n_19
*302 fifomem/n_20
*303 fifomem/n_21
*304 fifomem/n_22
*305 fifomem/n_23
*306 fifomem/n_24
*307 fifomem/n_25
*308 fifomem/n_27
*309 fifomem/n_28
*310 fifomem/n_29
*311 fifomem/n_30
*312 fifomem/n_31
*313 fifomem/n_32
*314 fifomem/n_33
*315 fifomem/n_34
*316 fifomem/n_35
*317 fifomem/n_36
*318 fifomem/n_37
*319 fifomem/n_38
*320 fifomem/n_39
*321 fifomem/n_40
*322 fifomem/n_41
*323 fifomem/n_42
*324 fifomem/n_43
*325 fifomem/n_44
*326 fifomem/n_45
*327 fifomem/n_46
*328 fifomem/n_47
*329 fifomem/n_48
*330 fifomem/n_49
*331 fifomem/n_50
*332 fifomem/n_51
*333 fifomem/n_52
*334 fifomem/n_53
*335 fifomem/n_54
*336 fifomem/n_55
*337 fifomem/n_56
*338 fifomem/n_57
*339 fifomem/n_58
*340 fifomem/n_59
*341 fifomem/n_60
*342 fifomem/n_61
*343 fifomem/n_62
*344 fifomem/n_63
*345 fifomem/n_64
*346 fifomem/n_65
*347 fifomem/n_66
*348 fifomem/n_67
*349 fifomem/n_68
*350 fifomem/n_69
*351 fifomem/n_70
*352 fifomem/n_71
*353 fifomem/n_72
*354 fifomem/n_73
*355 fifomem/n_74
*356 fifomem/n_75
*357 fifomem/n_76
*358 fifomem/n_77
*359 fifomem/n_78
*360 rptr_empty_inst/n_0
*361 rptr_empty_inst/n_1
*362 rptr_empty_inst/n_2
*363 rptr_empty_inst/n_3
*364 rptr_empty_inst/n_4
*365 rptr_empty_inst/n_5
*366 rptr_empty_inst/n_6
*367 rptr_empty_inst/n_7
*368 rptr_empty_inst/n_8
*369 rptr_empty_inst/n_9
*370 rptr_empty_inst/n_10
*371 rptr_empty_inst/n_11
*372 rptr_empty_inst/n_12
*373 rptr_empty_inst/n_13
*374 rptr_empty_inst/n_14
*375 rptr_empty_inst/n_15
*376 rptr_empty_inst/n_16
*377 rptr_empty_inst/n_17
*378 rptr_empty_inst/n_18
*379 rptr_empty_inst/n_19
*380 rptr_empty_inst/n_20
*381 rptr_empty_inst/n_21
*382 rptr_empty_inst/n_22
*383 rptr_empty_inst/n_23
*384 sync_r2w/q1[4]
*385 sync_r2w/q1[3]
*386 sync_r2w/q1[2]
*387 sync_r2w/q1[1]
*388 sync_r2w/q1[0]
*389 sync_w2r/q1[4]
*390 sync_w2r/q1[3]
*391 sync_w2r/q1[2]
*392 sync_w2r/q1[1]
*393 sync_w2r/q1[0]
*394 wptr_full_inst/n_0
*395 wptr_full_inst/n_1
*396 wptr_full_inst/n_3
*397 wptr_full_inst/n_4
*398 wptr_full_inst/n_5
*399 wptr_full_inst/n_8
*400 wptr_full_inst/n_9
*401 wptr_full_inst/n_10
*402 wptr_full_inst/n_12
*403 wptr_full_inst/n_13
*404 wptr_full_inst/n_16
*405 wptr_full_inst/n_17
*406 wptr_full_inst/n_19
*407 wptr_full_inst/n_20
*408 wptr_full_inst/n_21
*409 wptr_full_inst/n_22
*410 wptr_full_inst/n_23
*411 wptr_full_inst/n_25
*412 wptr_full_inst/n_27
*413 wptr_full_inst/n_28
*414 wptr_full_inst/n_29
*415 wptr_full_inst/n_46
*416 wptr_full_inst/n_47
*417 FE_PHC81_rrst_n
*418 FE_PHC80_wrst_n
*419 CTS_ccl_a_buf_00004
*420 FE_OCPC12_FE_OFN10_FE_OFN8_wfull
*421 FE_OFC10_FE_OFN8_wfull
*422 FE_OFC7_rdata_0
*423 FE_OFC6_rdata_1
*424 FE_OFC5_rdata_2
*425 FE_OFC4_rdata_3
*426 FE_OFC3_rdata_4
*427 FE_OFC2_rdata_5
*428 FE_OFC1_rdata_6
*429 FE_OFC0_rdata_7
*430 fifomem/FE_PHC92_wdata_3
*431 fifomem/FE_PHC91_wdata_2
*432 fifomem/FE_PHC90_wdata_6
*433 fifomem/FE_PHC89_wdata_1
*434 fifomem/FE_PHC88_wdata_4
*435 fifomem/FE_PHC87_wdata_1
*436 fifomem/FE_PHC86_wdata_4
*437 fifomem/FE_PHC85_wdata_5
*438 fifomem/FE_PHC84_wdata_0
*439 fifomem/FE_PHC83_wdata_7
*440 fifomem/FE_PHC82_wdata_3
*441 fifomem/FE_OCPC70_n_8
*442 fifomem/FE_OCPC77_n_29
*443 fifomem/FE_OCPC76_n_27
*444 fifomem/FE_OCPC75_waddr_0
*445 fifomem/FE_RC_80_0_dup
*446 fifomem/FE_RC_101_0
*447 fifomem/FE_RC_100_0
*448 fifomem/FE_RC_99_0
*449 fifomem/FE_RC_98_0
*450 fifomem/FE_RC_97_0
*451 fifomem/FE_OCPC74_n_7
*452 fifomem/FE_OCPC68_n_25
*453 fifomem/FE_OCPC73_n_4
*454 fifomem/FE_OCPC66_n_27
*455 fifomem/FE_OCPC65_n_31
*456 fifomem/FE_OCPC64_n_4
*457 fifomem/FE_OCPC63_n_23
*458 fifomem/CTS_ccl_a_buf_00006
*459 fifomem/FE_RC_80_0
*460 fifomem/FE_RC_74_0
*461 fifomem/FE_RC_54_0
*462 fifomem/FE_RC_53_0
*463 fifomem/FE_OCPC55_n_24
*464 fifomem/FE_OCPC53_n_17
*465 fifomem/FE_RC_36_0
*466 fifomem/FE_RC_35_0
*467 fifomem/FE_OCPC50_n_12
*468 fifomem/FE_OCPC31_n_21
*469 fifomem/FE_OCPC29_n_0
*470 fifomem/FE_OFC13_n_19
*471 fifomem/FE_OFC12_n_1
*472 fifomem/FE_OFC11_raddr_0
*473 fifomem/g5585
*474 fifomem/g5586
*475 fifomem/g5587
*476 fifomem/g5588
*477 fifomem/g5589
*478 fifomem/g5590
*479 fifomem/g5591
*480 fifomem/g5592
*481 fifomem/g5593
*482 fifomem/g5594
*483 fifomem/g5595
*484 fifomem/g5596
*485 fifomem/g5597
*486 fifomem/g5598
*487 fifomem/g5599
*488 fifomem/g5600
*489 fifomem/g5601
*490 fifomem/g5602
*491 fifomem/g5603
*492 fifomem/g5604
*493 fifomem/g5605
*494 fifomem/g5606
*495 fifomem/g5607
*496 fifomem/g5608
*497 fifomem/g5609
*498 fifomem/g5610
*499 fifomem/g5611
*500 fifomem/g5612
*501 fifomem/g5613
*502 fifomem/g5614
*503 fifomem/g5615
*504 fifomem/g5616
*505 fifomem/g5617
*506 fifomem/g5618
*507 fifomem/g5619
*508 fifomem/g5620
*509 fifomem/g5621
*510 fifomem/g5622
*511 fifomem/g5623
*512 fifomem/g5624
*513 fifomem/g5625
*514 fifomem/g5626
*515 fifomem/g5627
*516 fifomem/g5628
*517 fifomem/g5629
*518 fifomem/g5630
*519 fifomem/g5631
*520 fifomem/g5632
*521 fifomem/g5633
*522 fifomem/g5634
*523 fifomem/g5635
*524 fifomem/g5636
*525 fifomem/g5637
*526 fifomem/g5638
*527 fifomem/g5639
*528 fifomem/mem_reg\[0\]\[0\]
*529 fifomem/mem_reg\[0\]\[1\]
*530 fifomem/mem_reg\[0\]\[2\]
*531 fifomem/mem_reg\[0\]\[3\]
*532 fifomem/mem_reg\[0\]\[4\]
*533 fifomem/mem_reg\[0\]\[5\]
*534 fifomem/mem_reg\[0\]\[6\]
*535 fifomem/mem_reg\[0\]\[7\]
*536 fifomem/mem_reg\[1\]\[0\]
*537 fifomem/mem_reg\[1\]\[1\]
*538 fifomem/mem_reg\[1\]\[2\]
*539 fifomem/mem_reg\[1\]\[3\]
*540 fifomem/mem_reg\[1\]\[4\]
*541 fifomem/mem_reg\[1\]\[5\]
*542 fifomem/mem_reg\[1\]\[6\]
*543 fifomem/mem_reg\[1\]\[7\]
*544 fifomem/mem_reg\[2\]\[0\]
*545 fifomem/mem_reg\[2\]\[1\]
*546 fifomem/mem_reg\[2\]\[2\]
*547 fifomem/mem_reg\[2\]\[3\]
*548 fifomem/mem_reg\[2\]\[4\]
*549 fifomem/mem_reg\[2\]\[5\]
*550 fifomem/mem_reg\[2\]\[6\]
*551 fifomem/mem_reg\[2\]\[7\]
*552 fifomem/mem_reg\[3\]\[0\]
*553 fifomem/mem_reg\[3\]\[1\]
*554 fifomem/mem_reg\[3\]\[2\]
*555 fifomem/mem_reg\[3\]\[3\]
*556 fifomem/mem_reg\[3\]\[4\]
*557 fifomem/mem_reg\[3\]\[5\]
*558 fifomem/mem_reg\[3\]\[6\]
*559 fifomem/mem_reg\[3\]\[7\]
*560 fifomem/mem_reg\[4\]\[0\]
*561 fifomem/mem_reg\[4\]\[1\]
*562 fifomem/mem_reg\[4\]\[2\]
*563 fifomem/mem_reg\[4\]\[3\]
*564 fifomem/mem_reg\[4\]\[4\]
*565 fifomem/mem_reg\[4\]\[5\]
*566 fifomem/mem_reg\[4\]\[6\]
*567 fifomem/mem_reg\[4\]\[7\]
*568 fifomem/mem_reg\[5\]\[0\]
*569 fifomem/mem_reg\[5\]\[1\]
*570 fifomem/mem_reg\[5\]\[2\]
*571 fifomem/mem_reg\[5\]\[3\]
*572 fifomem/mem_reg\[5\]\[4\]
*573 fifomem/mem_reg\[5\]\[5\]
*574 fifomem/mem_reg\[5\]\[6\]
*575 fifomem/mem_reg\[5\]\[7\]
*576 fifomem/mem_reg\[6\]\[0\]
*577 fifomem/mem_reg\[6\]\[1\]
*578 fifomem/mem_reg\[6\]\[2\]
*579 fifomem/mem_reg\[6\]\[3\]
*580 fifomem/mem_reg\[6\]\[4\]
*581 fifomem/mem_reg\[6\]\[5\]
*582 fifomem/mem_reg\[6\]\[6\]
*583 fifomem/mem_reg\[6\]\[7\]
*584 fifomem/mem_reg\[7\]\[0\]
*585 fifomem/mem_reg\[7\]\[1\]
*586 fifomem/mem_reg\[7\]\[2\]
*587 fifomem/mem_reg\[7\]\[3\]
*588 fifomem/mem_reg\[7\]\[4\]
*589 fifomem/mem_reg\[7\]\[5\]
*590 fifomem/mem_reg\[7\]\[6\]
*591 fifomem/mem_reg\[7\]\[7\]
*592 fifomem/mem_reg\[8\]\[0\]
*593 fifomem/mem_reg\[8\]\[1\]
*594 fifomem/mem_reg\[8\]\[2\]
*595 fifomem/mem_reg\[8\]\[3\]
*596 fifomem/mem_reg\[8\]\[4\]
*597 fifomem/mem_reg\[8\]\[5\]
*598 fifomem/mem_reg\[8\]\[6\]
*599 fifomem/mem_reg\[8\]\[7\]
*600 fifomem/mem_reg\[9\]\[0\]
*601 fifomem/mem_reg\[9\]\[1\]
*602 fifomem/mem_reg\[9\]\[2\]
*603 fifomem/mem_reg\[9\]\[3\]
*604 fifomem/mem_reg\[9\]\[4\]
*605 fifomem/mem_reg\[9\]\[5\]
*606 fifomem/mem_reg\[9\]\[6\]
*607 fifomem/mem_reg\[9\]\[7\]
*608 fifomem/mem_reg\[10\]\[0\]
*609 fifomem/mem_reg\[10\]\[1\]
*610 fifomem/mem_reg\[10\]\[2\]
*611 fifomem/mem_reg\[10\]\[3\]
*612 fifomem/mem_reg\[10\]\[4\]
*613 fifomem/mem_reg\[10\]\[5\]
*614 fifomem/mem_reg\[10\]\[6\]
*615 fifomem/mem_reg\[10\]\[7\]
*616 fifomem/mem_reg\[11\]\[0\]
*617 fifomem/mem_reg\[11\]\[1\]
*618 fifomem/mem_reg\[11\]\[2\]
*619 fifomem/mem_reg\[11\]\[3\]
*620 fifomem/mem_reg\[11\]\[4\]
*621 fifomem/mem_reg\[11\]\[5\]
*622 fifomem/mem_reg\[11\]\[6\]
*623 fifomem/mem_reg\[11\]\[7\]
*624 fifomem/mem_reg\[12\]\[0\]
*625 fifomem/mem_reg\[12\]\[1\]
*626 fifomem/mem_reg\[12\]\[2\]
*627 fifomem/mem_reg\[12\]\[3\]
*628 fifomem/mem_reg\[12\]\[4\]
*629 fifomem/mem_reg\[12\]\[5\]
*630 fifomem/mem_reg\[12\]\[6\]
*631 fifomem/mem_reg\[12\]\[7\]
*632 fifomem/mem_reg\[13\]\[0\]
*633 fifomem/mem_reg\[13\]\[1\]
*634 fifomem/mem_reg\[13\]\[2\]
*635 fifomem/mem_reg\[13\]\[3\]
*636 fifomem/mem_reg\[13\]\[4\]
*637 fifomem/mem_reg\[13\]\[5\]
*638 fifomem/mem_reg\[13\]\[6\]
*639 fifomem/mem_reg\[13\]\[7\]
*640 fifomem/mem_reg\[14\]\[0\]
*641 fifomem/mem_reg\[14\]\[1\]
*642 fifomem/mem_reg\[14\]\[2\]
*643 fifomem/mem_reg\[14\]\[3\]
*644 fifomem/mem_reg\[14\]\[4\]
*645 fifomem/mem_reg\[14\]\[5\]
*646 fifomem/mem_reg\[14\]\[6\]
*647 fifomem/mem_reg\[14\]\[7\]
*648 fifomem/mem_reg\[15\]\[0\]
*649 fifomem/mem_reg\[15\]\[1\]
*650 fifomem/mem_reg\[15\]\[2\]
*651 fifomem/mem_reg\[15\]\[3\]
*652 fifomem/mem_reg\[15\]\[4\]
*653 fifomem/mem_reg\[15\]\[5\]
*654 fifomem/mem_reg\[15\]\[6\]
*655 fifomem/mem_reg\[15\]\[7\]
*656 fifomem/g3045
*657 fifomem/g3047
*658 fifomem/g3048
*659 fifomem/g3050
*660 fifomem/g3051
*661 fifomem/g3052
*662 fifomem/g3053
*663 fifomem/g3054
*664 fifomem/g3057
*665 fifomem/g3058
*666 fifomem/g3059
*667 fifomem/g3060
*668 fifomem/g3066
*669 fifomem/g3067
*670 fifomem/g3070
*671 fifomem/g3074
*672 fifomem/g3075
*673 fifomem/g3076
*674 fifomem/g3080
*675 fifomem/g2
*676 fifomem/g3085
*677 rptr_empty_inst/FE_OFC9_rempty
*678 rptr_empty_inst/g188
*679 rptr_empty_inst/g189
*680 rptr_empty_inst/g190
*681 rptr_empty_inst/g191
*682 rptr_empty_inst/g192
*683 rptr_empty_inst/g193
*684 rptr_empty_inst/g194
*685 rptr_empty_inst/g195
*686 rptr_empty_inst/g196
*687 rptr_empty_inst/g197
*688 rptr_empty_inst/g198
*689 rptr_empty_inst/g199
*690 rptr_empty_inst/rptr_reg\[3\]
*691 rptr_empty_inst/rptr_reg\[4\]
*692 rptr_empty_inst/rptr_reg\[2\]
*693 rptr_empty_inst/g136
*694 rptr_empty_inst/g137
*695 rptr_empty_inst/g138
*696 rptr_empty_inst/rptr_reg\[1\]
*697 rptr_empty_inst/g140
*698 rptr_empty_inst/g141
*699 rptr_empty_inst/g142
*700 rptr_empty_inst/rptr_reg\[0\]
*701 rptr_empty_inst/g144
*702 rptr_empty_inst/g145
*703 rptr_empty_inst/g146
*704 rptr_empty_inst/g147
*705 rptr_empty_inst/g148
*706 rptr_empty_inst/g149
*707 rptr_empty_inst/g150
*708 rptr_empty_inst/g151
*709 rptr_empty_inst/g152
*710 rptr_empty_inst/g153
*711 rptr_empty_inst/g154
*712 sync_r2w/q2_reg\[4\]
*713 sync_r2w/q2_reg\[3\]
*714 sync_r2w/q2_reg\[1\]
*715 sync_r2w/q2_reg\[0\]
*716 sync_r2w/q2_reg\[2\]
*717 sync_r2w/q1_reg\[2\]
*718 sync_r2w/q1_reg\[3\]
*719 sync_r2w/q1_reg\[4\]
*720 sync_r2w/q1_reg\[1\]
*721 sync_r2w/q1_reg\[0\]
*722 sync_w2r/q2_reg\[4\]
*723 sync_w2r/q2_reg\[3\]
*724 sync_w2r/q2_reg\[1\]
*725 sync_w2r/q2_reg\[0\]
*726 sync_w2r/q2_reg\[2\]
*727 sync_w2r/q1_reg\[2\]
*728 sync_w2r/q1_reg\[3\]
*729 sync_w2r/q1_reg\[4\]
*730 sync_w2r/q1_reg\[1\]
*731 sync_w2r/q1_reg\[0\]
*732 wptr_full_inst/FE_RC_104_0
*733 wptr_full_inst/FE_OCPC78_n_8
*734 wptr_full_inst/FE_RC_103_0
*735 wptr_full_inst/FE_RC_102_0
*736 wptr_full_inst/FE_OCPC69_wptr_1
*737 wptr_full_inst/FE_RC_68_0_dup
*738 wptr_full_inst/FE_RC_96_0
*739 wptr_full_inst/FE_RC_95_0
*740 wptr_full_inst/FE_RC_94_0
*741 wptr_full_inst/FE_OCPC67_waddr_2
*742 wptr_full_inst/FE_RC_93_0
*743 wptr_full_inst/FE_RC_92_0
*744 wptr_full_inst/FE_RC_91_0
*745 wptr_full_inst/FE_RC_90_0
*746 wptr_full_inst/FE_RC_89_0
*747 wptr_full_inst/FE_RC_88_0
*748 wptr_full_inst/FE_OCPC72_waddr_1
*749 wptr_full_inst/FE_RC_87_0
*750 wptr_full_inst/FE_RC_83_0_dup
*751 wptr_full_inst/FE_RC_85_0
*752 wptr_full_inst/FE_RC_84_0
*753 wptr_full_inst/FE_RC_83_0
*754 wptr_full_inst/FE_RC_82_0
*755 wptr_full_inst/FE_RC_76_0
*756 wptr_full_inst/FE_RC_75_0
*757 wptr_full_inst/FE_RC_70_0
*758 wptr_full_inst/FE_RC_69_0
*759 wptr_full_inst/FE_RC_68_0
*760 wptr_full_inst/FE_RC_62_0
*761 wptr_full_inst/FE_RC_61_0
*762 wptr_full_inst/FE_RC_60_0
*763 wptr_full_inst/FE_RC_59_0
*764 wptr_full_inst/FE_RC_58_0
*765 wptr_full_inst/FE_RC_57_0
*766 wptr_full_inst/FE_RC_56_0
*767 wptr_full_inst/FE_RC_55_0
*768 wptr_full_inst/FE_RC_51_0
*769 wptr_full_inst/FE_RC_49_0
*770 wptr_full_inst/FE_RC_48_0
*771 wptr_full_inst/FE_RC_47_0
*772 wptr_full_inst/FE_RC_46_0
*773 wptr_full_inst/FE_RC_42_0
*774 wptr_full_inst/FE_OCPC52_wptr_3
*775 wptr_full_inst/FE_OCPC51_wptr_3
*776 wptr_full_inst/FE_RC_40_0
*777 wptr_full_inst/FE_RC_39_0
*778 wptr_full_inst/FE_RC_33_0
*779 wptr_full_inst/FE_RC_32_0
*780 wptr_full_inst/FE_RC_31_0
*781 wptr_full_inst/FE_RC_30_0
*782 wptr_full_inst/FE_OCPC43_wptr_4
*783 wptr_full_inst/FE_OCPC41_wptr_2
*784 wptr_full_inst/FE_OCPC37_n_30
*785 wptr_full_inst/FE_OCPC36_n_30
*786 wptr_full_inst/FE_OCPC35_n_30
*787 wptr_full_inst/FE_RC_15_0
*788 wptr_full_inst/FE_RC_14_0
*789 wptr_full_inst/FE_RC_13_0
*790 wptr_full_inst/FE_RC_12_0
*791 wptr_full_inst/FE_OCPC22_waddr_3
*792 wptr_full_inst/FE_OFC17_n_17
*793 wptr_full_inst/FE_OFC15_waddr_3
*794 wptr_full_inst/g201
*795 wptr_full_inst/g208
*796 wptr_full_inst/wptr_reg\[3\]
*797 wptr_full_inst/wptr_reg\[2\]
*798 wptr_full_inst/g143
*799 wptr_full_inst/wptr_reg\[1\]
*800 wptr_full_inst/g148
*801 wptr_full_inst/wptr_reg\[0\]
*802 wptr_full_inst/g151
*803 wptr_full_inst/g152
*804 wptr_full_inst/g157
*805 wptr_full_inst/g159
*806 wptr_full_inst/g160
*807 wptr_full_inst/g219
*808 wptr_full_inst/wptr_reg\[4\]
*809 rdata_reg\[7\]
*810 rdata_reg\[6\]
*811 rdata_reg\[4\]
*812 rdata_reg\[0\]
*813 rdata_reg\[3\]
*814 rdata_reg\[5\]
*815 rdata_reg\[2\]
*816 rdata_reg\[1\]


*PORTS

*111 O *C 106.43 102.08
*112 O *C 70.955 102.08
*113 O *C 35.475 102.08
*114 O *C 0 102.08
*115 O *C 0 72.91
*116 O *C 0 58.33
*117 O *C 0 43.745
*118 O *C 0 29.165
*119 O *C 106.43 0
*120 O *C 0 102.075
*97 I *C 63.86 0
*98 I *C 42.57 0
*99 I *C 21.285 0
*100 I *C 0 0
*101 I *C 106.43 102.08
*102 I *C 106.43 81.665
*103 I *C 106.43 61.25
*104 I *C 106.43 40.83
*105 I *C 85.145 0
*106 I *C 106.43 0
*107 I *C 106.43 20.415
*108 I *C 0 87.495
*109 I *C 0 0
*110 I *C 0 14.58


*D_NET *1 0.00992455

*CONN
*I *430:Y O *C 60.175 73.515 *L 0 *D CLKBUFX2
*I *440:A I *C 60.465 70.615 *L 0.00172 *D CLKBUFX2
*I *611:D I *C 49.155 68.005 *L 0.00181 *D SDFFQXL
*I *555:SI I *C 46.835 73.225 *L 0.00169 *D SDFFQXL
*I *563:SI I *C 62.495 65.395 *L 0.00169 *D SDFFQXL
*I *547:D I *C 48.865 65.395 *L 0.00181 *D SDFFQXL
*I *587:SI I *C 37.265 81.055 *L 0.00169 *D SDFFQXL
*I *619:D I *C 55.825 62.785 *L 0.00181 *D SDFFQXL
*I *651:SI I *C 38.135 86.275 *L 0.00169 *D SDFFQXL
*I *643:SI I *C 38.425 88.885 *L 0.00169 *D SDFFQXL
*I *579:SI I *C 38.425 91.495 *L 0.00169 *D SDFFQXL

*CAP
1 *430:Y 4.40818e-05
2 *440:A 4.40818e-05
3 *611:D 4.40818e-05
4 *555:SI 4.40818e-05
5 *563:SI 4.40818e-05
6 *547:D 4.40818e-05
7 *587:SI 4.40818e-05
8 *619:D 4.40818e-05
9 *651:SI 4.40818e-05
10 *643:SI 4.40818e-05
11 *579:SI 4.40818e-05
12 *1:11 9.83086e-05
13 *1:12 9.83086e-05
14 *1:13 0.000514718
15 *1:14 0.000417206
16 *1:15 0.000126257
17 *1:16 0.000229178
18 *1:17 0.000247921
19 *1:18 0.000277246
20 *1:19 6.63457e-05
21 *1:20 9.32788e-05
22 *1:21 9.83655e-05
23 *1:22 0.000149309
24 *1:23 0.000149309
25 *1:24 0.000151416
26 *1:25 0.000186662
27 *1:26 7.22771e-05
28 *1:27 7.40897e-05
29 *1:28 7.91954e-05
30 *1:29 0.000593553
31 *1:30 0.000621938
32 *1:31 0.000223142
33 *1:32 0.000141204
34 *1:33 0.000618483
35 *1:34 0.000618474
36 *1:35 9.58791e-05
37 *1:36 0.00020699
38 *1:37 0.000147003
39 *1:38 6.29103e-05
40 *1:39 7.85311e-05
41 *1:40 6.35651e-05
42 *1:41 3.78088e-05
43 *1:42 0.000104695
44 *1:43 0.000226492
45 *1:44 0.000157679
46 *1:45 0.000432448
47 *1:46 0.000432448
48 *1:47 0.00015244
49 *1:48 4.68529e-05
50 *1:49 0.000163316
51 *1:50 0.000163316
52 *1:33 *174:3 2.47899e-05
53 *1:34 *174:4 2.47899e-05
54 *1:33 *174:5 9.91416e-05
55 *1:34 *174:6 9.91371e-05
56 *1:33 *174:7 2.47899e-05
57 *1:34 *174:8 2.47899e-05
58 *1:17 *217:8 7.43575e-05
59 *1:18 *217:7 7.43616e-05
60 *1:18 *217:8 3.30505e-05
61 *1:19 *217:7 3.30464e-05
62 *1:20 *217:8 2.67926e-05
63 *1:21 *217:7 2.67885e-05
64 *1:39 *169:3 0.000140633
65 *1:38 *169:4 0.000140628
66 *1:43 *169:5 1.22195e-05
67 *1:42 *169:6 1.22195e-05
68 *1:39 *169:7 2.47914e-05
69 *1:38 *169:8 2.47914e-05

*RES
1 *1:12 *619:D 1.39998
2 *1:12 *1:11 0.497158
3 *1:28 *1:11 1.39998
4 *1:28 *1:27 0.372869
5 *1:27 *1:23 0.12429
6 *1:50 *563:SI 1.39998
7 *1:23 *1:22 1.24283
8 *1:49 *1:50 0.621448
9 *1:26 *1:22 0.12429
10 *1:24 *1:49 1.39998
11 *1:26 *1:25 0.372869
12 *1:25 *1:24 0.870027
13 *1:14 *1:25 1.39998
14 *1:48 *430:Y 1.39998
15 *1:21 *547:D 1.39998
16 *1:13 *440:A 1.39998
17 *1:14 *1:13 2.8586
18 *1:48 *1:15 0.12429
19 *1:21 *1:20 0.621448
20 *1:13 *1:16 0.745737
21 *1:16 *1:15 0.497158
22 *1:44 *579:SI 1.39998
23 *1:20 *1:19 0.12429
24 *1:29 *1:16 1.39998
25 *1:43 *643:SI 1.39998
26 *1:43 *1:44 1.11854
27 *1:18 *611:D 1.39998
28 *1:19 *1:18 0.497158
29 *1:30 *1:29 3.72856
30 *1:42 *1:43 0.870027
31 *1:18 *1:17 2.23715
32 *1:30 *1:47 0.372869
33 *1:41 *1:42 0.12429
34 *1:31 *1:17 1.39998
35 *1:31 *1:47 1.11854
36 *1:40 *651:SI 1.39998
37 *1:40 *1:41 0.248579
38 *1:32 *1:31 0.994316
39 *1:39 *1:40 0.248579
40 *1:45 *555:SI 1.39998
41 *1:45 *1:32 1.39998
42 *1:38 *1:39 1.24283
43 *1:45 *1:46 2.8586
44 *1:37 *1:38 0.12429
45 *1:33 *1:46 1.39998
46 *1:36 *587:SI 1.39998
47 *1:36 *1:37 0.994316
48 *1:34 *1:33 4.10143
49 *1:35 *1:36 0.497158
50 *1:35 *1:34 1.39998
*END

*D_NET *2 0.0134446

*CONN
*I *431:Y O *C 66.265 75.545 *L 0 *D CLKBUFX2
*I *554:SI I *C 44.515 73.225 *L 0.00169 *D SDFFQXL
*I *546:D I *C 43.645 78.445 *L 0.00181 *D SDFFQXL
*I *610:D I *C 43.645 68.005 *L 0.00181 *D SDFFQXL
*I *618:D I *C 43.065 65.395 *L 0.00181 *D SDFFQXL
*I *642:SI I *C 28.855 65.395 *L 0.00169 *D SDFFQXL
*I *650:SI I *C 28.565 68.005 *L 0.00169 *D SDFFQXL
*I *578:SI I *C 28.275 73.225 *L 0.00169 *D SDFFQXL
*I *586:SI I *C 27.985 75.835 *L 0.00169 *D SDFFQXL
*I *626:D I *C 17.835 70.615 *L 0.00181 *D SDFFQXL
*I *634:D I *C 17.255 60.175 *L 0.00183 *D SDFFQX1
*I *570:SI I *C 18.705 73.225 *L 0.00169 *D SDFFQXL
*I *562:SI I *C 19.285 62.785 *L 0.00169 *D SDFFQXL

*CAP
1 *431:Y 2.65141e-05
2 *554:SI 4.40832e-05
3 *546:D 4.40832e-05
4 *610:D 4.40832e-05
5 *618:D 4.40832e-05
6 *642:SI 4.40832e-05
7 *650:SI 4.40832e-05
8 *578:SI 4.40832e-05
9 *586:SI 4.40832e-05
10 *626:D 4.40832e-05
11 *634:D 1.46677e-05
12 *570:SI 4.40832e-05
13 *562:SI 4.40832e-05
14 *2:13 9.41698e-05
15 *2:14 9.41698e-05
16 *2:15 0.000185719
17 *2:16 0.000185719
18 *2:17 0.000148575
19 *2:18 0.000139176
20 *2:19 0.000235592
21 *2:20 0.000208155
22 *2:21 0.00017537
23 *2:22 0.000190987
24 *2:23 0.00033035
25 *2:24 0.000372508
26 *2:25 0.000223464
27 *2:26 0.000222328
28 *2:27 7.4087e-05
29 *2:28 4.77601e-05
30 *2:29 4.26659e-05
31 *2:30 0.000123331
32 *2:31 0.000123345
33 *2:32 0.00010377
34 *2:33 9.53999e-05
35 *2:34 6.26684e-05
36 *2:35 6.37782e-05
37 *2:36 0.000105441
38 *2:37 8.36471e-05
39 *2:38 0.000181106
40 *2:39 0.000189476
41 *2:40 0.000371277
42 *2:41 0.000247572
43 *2:42 8.10665e-05
44 *2:43 0.00015637
45 *2:44 0.000156357
46 *2:45 0.000136635
47 *2:46 0.000147719
48 *2:47 7.27232e-05
49 *2:48 0.000114721
50 *2:49 7.34319e-05
51 *2:50 6.22673e-05
52 *2:51 0.000263015
53 *2:52 0.000302592
54 *2:53 0.000296482
55 *2:54 0.000870138
56 *2:55 0.000876249
57 *2:56 4.73456e-05
58 *2:57 6.20133e-05
59 *2:58 7.3258e-05
60 *2:59 7.13327e-05
61 *2:60 0.000104866
62 *2:61 7.92882e-05
63 *2:62 9.66568e-05
64 *2:63 9.66568e-05
65 *2:64 0.000375369
66 *2:65 0.000380463
67 *2:66 0.000116138
68 *2:67 0.000178165
69 *2:68 0.000357573
70 *2:69 0.000323103
71 *2:70 8.13339e-05
72 *2:71 4.71584e-05
73 *2:72 6.39119e-05
74 *2:73 8.45563e-05
75 *2:74 5.61569e-05
76 *2:75 0.000218798
77 *2:76 0.0002242
78 *2:77 5.08354e-05
79 *2:78 4.68509e-05
80 *2:52 *173:16 2.67885e-05
81 *2:53 *173:14 2.67885e-05
82 *2:54 *173:13 2.47911e-05
83 *2:55 *173:10 2.47882e-05
84 *2:54 *173:3 4.28692e-05
85 *2:55 *173:4 4.28692e-05
86 *2:28 *218:11 6.02686e-05
87 *2:29 *218:9 6.02686e-05
88 *2:30 *218:9 0.000140632
89 *2:31 *218:7 0.000140632
90 *2:32 *218:9 3.30462e-05
91 *2:33 *218:7 3.30541e-05
92 *2:34 *218:5 5.35756e-06
93 *2:35 *218:6 5.35756e-06
94 *2:36 *218:5 1.52746e-05
95 *2:37 *218:6 1.52667e-05
96 *2:34 *218:10 4.35401e-06
97 *2:35 *218:8 4.34611e-06
98 *2:13 *250:12 2.47917e-05
99 *2:14 *250:3 2.47882e-05
100 *2:15 *250:9 9.08818e-05
101 *2:16 *250:7 9.08818e-05
102 *2:50 *194:12 1.65213e-05
103 *2:51 *194:10 1.65213e-05
104 *2:51 *194:12 8.25749e-06
105 *2:40 *194:10 8.25749e-06
106 *2:51 *194:5 0.000115668
107 *2:40 *194:6 0.000115674
108 *2:40 *194:5 6.60977e-05
109 *2:41 *194:6 6.60977e-05

*RES
1 *2:77 *431:Y 0.386694
2 *2:78 *2:77 1.40002
3 *2:75 *2:78 0.124324
4 *2:75 *2:76 1.6157
5 *2:52 *2:76 1.40002
6 *2:53 *2:52 2.23711
7 *2:54 *2:53 0.124324
8 *2:74 *546:D 1.40002
9 *2:55 *2:54 6.71143
10 *2:73 *2:74 0.248545
11 *2:50 *2:55 1.40002
12 *2:73 *2:51 0.372869
13 *2:51 *2:50 0.497192
14 *2:40 *554:SI 1.40002
15 *2:40 *2:51 1.98856
16 *2:41 *2:40 1.98856
17 *2:42 *2:41 0.372869
18 *2:34 *610:D 1.40002
19 *2:34 *2:42 0.248545
20 *2:37 *618:D 1.40002
21 *2:35 *2:34 0.497192
22 *2:37 *2:36 0.621413
23 *2:36 *2:35 0.248545
24 *2:28 *2:36 1.40002
25 *2:29 *2:28 0.372869
26 *2:32 *2:29 0.124324
27 *2:33 *2:32 0.994282
28 *2:65 *586:SI 1.40002
29 *2:33 *2:30 0.0621618
30 *2:64 *2:65 1.36715
31 *2:70 *578:SI 1.40002
32 *2:31 *2:30 1.24283
33 *2:72 *642:SI 1.40002
34 *2:71 *650:SI 1.40002
35 *2:64 *2:69 0.124324
36 *2:69 *2:70 0.248545
37 *2:31 *2:38 0.0621618
38 *2:66 *2:72 0.248545
39 *2:68 *2:71 0.124324
40 *2:68 *2:69 1.98856
41 *2:39 *2:38 1.36715
42 *2:66 *2:67 0.497192
43 *2:67 *2:68 0.621413
44 *2:23 *2:39 0.124324
45 *2:61 *570:SI 1.40002
46 *2:24 *2:67 1.40002
47 *2:24 *2:23 2.36143
48 *2:60 *2:61 0.248545
49 *2:27 *2:24 0.372869
50 *2:45 *2:60 0.372869
51 *2:27 *2:25 0.124324
52 *2:46 *626:D 1.40002
53 *2:46 *2:45 0.869958
54 *2:26 *2:25 1.49147
55 *2:47 *2:46 0.372869
56 *2:26 *2:21 0.124324
57 *2:43 *2:47 0.124324
58 *2:22 *2:21 1.36715
59 *2:44 *2:43 0.994282
60 *2:17 *2:22 0.248545
61 *2:44 *2:59 0.124324
62 *2:18 *2:17 1.24283
63 *2:48 *2:59 0.372869
64 *2:48 *2:18 1.40002
65 *2:63 *562:SI 1.40002
66 *2:49 *2:48 0.372869
67 *2:62 *2:63 0.497192
68 *2:15 *2:49 0.124324
69 *2:13 *2:62 1.40002
70 *2:16 *2:15 1.49147
71 *2:14 *2:13 0.621413
72 *2:16 *2:58 0.124324
73 *2:19 *2:14 1.40002
74 *2:19 *2:58 0.248545
75 *2:20 *2:19 0.745737
76 *2:57 *2:20 0.248545
77 *2:56 *634:D 0.193347
78 *2:56 *2:57 1.40002
*END

*D_NET *3 0.00073374

*CONN
*I *432:Y O *C 60.175 52.635 *L 0 *D CLKBUFX2
*I *558:SI I *C 59.885 49.735 *L 0.00169 *D SDFFQXL

*CAP
1 *432:Y 1.32616e-05