*SPEF "IEEE 1481-1998"
*DESIGN "FIFO"
*DATE "Mon Nov 10 21:25:27 2025"
*VENDOR "Cadence Design Systems, Inc."
*PROGRAM "Innovus"
*VERSION "20.10-p004_1"
*DESIGN_FLOW "COUPLING C" "PIN_CAP NONE" "NAME_SCOPE LOCAL"
*DIVIDER /
*DELIMITER :
*BUS_DELIMITER []
*T_UNIT 1 NS
*C_UNIT 1 PF
*R_UNIT 1 OHM
*L_UNIT 1 HENRY

// MMMC spef file for corner 'default_rc_corner'

*NAME_MAP

*1 FE_PHN81_wdata_7
*2 fifomem/FE_PHN80_wdata_3
*3 fifomem/FE_PHN79_wdata_4
*4 fifomem/FE_PHN78_wdata_3
*5 sync_w2r/FE_PHN77_rrst_n
*6 FE_PHN76_rrst_n
*7 fifomem/FE_PHN75_wdata_3
*8 fifomem/FE_PHN74_wdata_4
*9 fifomem/FE_PHN73_wdata_5
*10 fifomem/FE_PHN72_wdata_4
*11 fifomem/FE_PHN71_wdata_5
*12 fifomem/FE_PHN70_wdata_1
*13 fifomem/FE_PHN69_wdata_0
*14 fifomem/FE_PHN68_wdata_2
*15 fifomem/FE_PHN67_wdata_3
*16 fifomem/FE_PHN66_wdata_6
*17 fifomem/FE_PHN65_wdata_7
*18 FE_PHN64_rrst_n
*19 FE_PHN63_wrst_n
*20 fifomem/FE_RN_32_0
*21 fifomem/FE_OCPN61_n_4
*22 fifomem/FE_OCPN60_FE_RN_3
*23 fifomem/FE_RN_7
*24 fifomem/FE_OCPN59_FE_RN_2
*25 fifomem/FE_OCPN46_n_17
*26 wptr_full_inst/FE_RN_1
*27 fifomem/FE_OCPN45_FE_RN_3
*28 fifomem/FE_OCPN44_n_27
*29 wptr_full_inst/FE_OCPN58_n_5
*30 wptr_full_inst/FE_RN_31_0
*31 wptr_full_inst/FE_RN_30_0
*32 wptr_full_inst/FE_RN_29_0
*33 FE_OCPN57_waddr_2
*34 fifomem/FE_OCPN43_n_19
*35 fifomem/FE_OCPN42_n_29
*36 wptr_full_inst/FE_OCPN41_waddr_0
*37 wptr_full_inst/FE_RN_28_0
*38 wptr_full_inst/FE_RN_27_0
*39 wptr_full_inst/FE_OCPN40_wptr_4
*40 fifomem/CTS_1
*41 CTS_1
*42 fifomem/FE_RN_26_0
*43 fifomem/FE_RN_25_0
*44 fifomem/FE_RN_24_0
*45 wptr_full_inst/FE_RN_3
*46 FE_OCPN45_FE_OFN10_FE_OFN8_wfull
*47 fifomem/FE_RN_22_0
*48 fifomem/FE_RN_5
*49 fifomem/FE_RN_4
*50 fifomem/FE_OCPN41_n_1
*51 fifomem/FE_RN_3
*52 fifomem/FE_RN_2
*53 wptr_full_inst/FE_RN_21_0
*54 wptr_full_inst/FE_RN_20_0
*55 wptr_full_inst/FE_RN_19_0
*56 wptr_full_inst/FE_RN_18_0
*57 fifomem/FE_RN_16_0
*58 fifomem/FE_RN_1
*59 wptr_full_inst/FE_RN_13_0
*60 wptr_full_inst/FE_RN_12_0
*61 wptr_full_inst/FE_RN_11_0
*62 fifomem/FE_OCPN16_n_15
*63 fifomem/FE_OCPN12_n_8
*64 fifomem/FE_OCPN28_n_31
*65 fifomem/FE_OCPN27_n_21
*66 fifomem/FE_OCPN25_n_4
*67 fifomem/FE_OCPN24_n_0
*68 wptr_full_inst/FE_RN_10_0
*69 wptr_full_inst/FE_RN_9_0
*70 FE_OCPN23_waddr_1
*71 wptr_full_inst/FE_RN_8_0
*72 wptr_full_inst/FE_RN_7_0
*73 wptr_full_inst/FE_RN_6_0
*74 fifomem/FE_OCPN19_n_25
*75 wptr_full_inst/FE_RN_4_0
*76 wptr_full_inst/FE_RN_2_0
*77 wptr_full_inst/FE_OCPN17_waddr_3
*78 wptr_full_inst/FE_RN_1_0
*79 wptr_full_inst/FE_RN_0_0
*80 wptr_full_inst/FE_OFN14_n_17
*81 fifomem/FE_OFN12_n_12
*82 FE_OFN10_FE_OFN8_wfull
*83 rptr_empty_inst/FE_OFN9_rempty
*84 FE_OFN7_rdata_0
*85 FE_OFN6_rdata_1
*86 FE_OFN5_rdata_2
*87 FE_OFN4_rdata_3
*88 FE_OFN3_rdata_4
*89 FE_OFN2_rdata_5
*90 FE_OFN1_rdata_6
*91 FE_OFN0_rdata_7
*92 wdata[7]
*93 wdata[6]
*94 wdata[5]
*95 wdata[4]
*96 wdata[3]
*97 wdata[2]
*98 wdata[1]
*99 wdata[0]
*100 winc
*101 wclk
*102 wrst_n
*103 rinc
*104 rclk
*105 rrst_n
*106 rdata[7]
*107 rdata[6]
*108 rdata[5]
*109 rdata[4]
*110 rdata[3]
*111 rdata[2]
*112 rdata[1]
*113 rdata[0]
*114 wfull
*115 rempty
*116 waddr[3]
*117 waddr[2]
*118 waddr[1]
*119 waddr[0]
*120 raddr[3]
*121 raddr[2]
*122 raddr[1]
*123 raddr[0]
*124 rdata_raw[7]
*125 rdata_raw[6]
*126 rdata_raw[5]
*127 rdata_raw[4]
*128 rdata_raw[3]
*129 rdata_raw[2]
*130 rdata_raw[1]
*131 rdata_raw[0]
*132 rq2_wptr[4]
*133 rq2_wptr[3]
*134 rq2_wptr[2]
*135 rq2_wptr[1]
*136 rq2_wptr[0]
*137 rptr[4]
*138 rptr[3]
*139 rptr[2]
*140 rptr[1]
*141 rptr[0]
*142 wq2_rptr[4]
*143 wq2_rptr[3]
*144 wq2_rptr[2]
*145 wq2_rptr[1]
*146 wq2_rptr[0]
*147 wptr[4]
*148 wptr[3]
*149 wptr[2]
*150 wptr[1]
*151 wptr[0]
*152 fifomem/mem\[6\][7]
*153 fifomem/mem\[6\][6]
*154 fifomem/mem\[6\][5]
*155 fifomem/mem\[6\][4]
*156 fifomem/mem\[6\][3]
*157 fifomem/mem\[6\][2]
*158 fifomem/mem\[6\][1]
*159 fifomem/mem\[6\][0]
*160 fifomem/mem\[14\][7]
*161 fifomem/mem\[14\][6]
*162 fifomem/mem\[14\][5]
*163 fifomem/mem\[14\][4]
*164 fifomem/mem\[14\][3]
*165 fifomem/mem\[14\][2]
*166 fifomem/mem\[14\][1]
*167 fifomem/mem\[14\][0]
*168 fifomem/mem\[7\][7]
*169 fifomem/mem\[7\][6]
*170 fifomem/mem\[7\][5]
*171 fifomem/mem\[7\][4]
*172 fifomem/mem\[7\][3]
*173 fifomem/mem\[7\][2]
*174 fifomem/mem\[7\][1]
*175 fifomem/mem\[7\][0]
*176 fifomem/mem\[15\][7]
*177 fifomem/mem\[15\][6]
*178 fifomem/mem\[15\][5]
*179 fifomem/mem\[15\][4]
*180 fifomem/mem\[15\][3]
*181 fifomem/mem\[15\][2]
*182 fifomem/mem\[15\][1]
*183 fifomem/mem\[15\][0]
*184 fifomem/mem\[2\][7]
*185 fifomem/mem\[2\][6]
*186 fifomem/mem\[2\][5]
*187 fifomem/mem\[2\][4]
*188 fifomem/mem\[2\][3]
*189 fifomem/mem\[2\][2]
*190 fifomem/mem\[2\][1]
*191 fifomem/mem\[2\][0]
*192 fifomem/mem\[10\][7]
*193 fifomem/mem\[10\][6]
*194 fifomem/mem\[10\][5]
*195 fifomem/mem\[10\][4]
*196 fifomem/mem\[10\][3]
*197 fifomem/mem\[10\][2]
*198 fifomem/mem\[10\][1]
*199 fifomem/mem\[10\][0]
*200 fifomem/mem\[3\][7]
*201 fifomem/mem\[3\][6]
*202 fifomem/mem\[3\][5]
*203 fifomem/mem\[3\][4]
*204 fifomem/mem\[3\][3]
*205 fifomem/mem\[3\][2]
*206 fifomem/mem\[3\][1]
*207 fifomem/mem\[3\][0]
*208 fifomem/mem\[11\][7]
*209 fifomem/mem\[11\][6]
*210 fifomem/mem\[11\][5]
*211 fifomem/mem\[11\][4]
*212 fifomem/mem\[11\][3]
*213 fifomem/mem\[11\][2]
*214 fifomem/mem\[11\][1]
*215 fifomem/mem\[11\][0]
*216 fifomem/mem\[4\][7]
*217 fifomem/mem\[4\][6]
*218 fifomem/mem\[4\][5]
*219 fifomem/mem\[4\][4]
*220 fifomem/mem\[4\][3]
*221 fifomem/mem\[4\][2]
*222 fifomem/mem\[4\][1]
*223 fifomem/mem\[4\][0]
*224 fifomem/mem\[12\][7]
*225 fifomem/mem\[12\][6]
*226 fifomem/mem\[12\][5]
*227 fifomem/mem\[12\][4]
*228 fifomem/mem\[12\][3]
*229 fifomem/mem\[12\][2]
*230 fifomem/mem\[12\][1]
*231 fifomem/mem\[12\][0]
*232 fifomem/mem\[5\][7]
*233 fifomem/mem\[5\][6]
*234 fifomem/mem\[5\][5]
*235 fifomem/mem\[5\][4]
*236 fifomem/mem\[5\][3]
*237 fifomem/mem\[5\][2]
*238 fifomem/mem\[5\][1]
*239 fifomem/mem\[5\][0]
*240 fifomem/mem\[13\][7]
*241 fifomem/mem\[13\][6]
*242 fifomem/mem\[13\][5]
*243 fifomem/mem\[13\][4]
*244 fifomem/mem\[13\][3]
*245 fifomem/mem\[13\][2]
*246 fifomem/mem\[13\][1]
*247 fifomem/mem\[13\][0]
*248 fifomem/mem\[0\][7]
*249 fifomem/mem\[0\][6]
*250 fifomem/mem\[0\][5]
*251 fifomem/mem\[0\][4]
*252 fifomem/mem\[0\][3]
*253 fifomem/mem\[0\][2]
*254 fifomem/mem\[0\][1]
*255 fifomem/mem\[0\][0]
*256 fifomem/mem\[8\][7]
*257 fifomem/mem\[8\][6]
*258 fifomem/mem\[8\][5]
*259 fifomem/mem\[8\][4]
*260 fifomem/mem\[8\][3]
*261 fifomem/mem\[8\][2]
*262 fifomem/mem\[8\][1]
*263 fifomem/mem\[8\][0]
*264 fifomem/mem\[1\][7]
*265 fifomem/mem\[1\][6]
*266 fifomem/mem\[1\][5]
*267 fifomem/mem\[1\][4]
*268 fifomem/mem\[1\][3]
*269 fifomem/mem\[1\][2]
*270 fifomem/mem\[1\][1]
*271 fifomem/mem\[1\][0]
*272 fifomem/mem\[9\][7]
*273 fifomem/mem\[9\][6]
*274 fifomem/mem\[9\][5]
*275 fifomem/mem\[9\][4]
*276 fifomem/mem\[9\][3]
*277 fifomem/mem\[9\][2]
*278 fifomem/mem\[9\][1]
*279 fifomem/mem\[9\][0]
*280 fifomem/n_0
*281 fifomem/n_2
*282 fifomem/n_5
*283 fifomem/n_6
*284 fifomem/n_7
*285 fifomem/n_8
*286 fifomem/n_9
*287 fifomem/n_10
*288 fifomem/n_12
*289 fifomem/n_13
*290 fifomem/n_15
*291 fifomem/n_16
*292 fifomem/n_17
*293 fifomem/n_18
*294 fifomem/n_19
*295 fifomem/n_20
*296 fifomem/n_21
*297 fifomem/n_22
*298 fifomem/n_23
*299 fifomem/n_24
*300 fifomem/n_25
*301 fifomem/n_27
*302 fifomem/n_28
*303 fifomem/n_29
*304 fifomem/n_31
*305 fifomem/n_32
*306 fifomem/n_33
*307 fifomem/n_34
*308 fifomem/n_35
*309 fifomem/n_36
*310 fifomem/n_37
*311 fifomem/n_38
*312 fifomem/n_39
*313 fifomem/n_40
*314 fifomem/n_41
*315 fifomem/n_42
*316 fifomem/n_43
*317 fifomem/n_44
*318 fifomem/n_45
*319 fifomem/n_46
*320 fifomem/n_47
*321 fifomem/n_48
*322 fifomem/n_49
*323 fifomem/n_50
*324 fifomem/n_51
*325 fifomem/n_52
*326 fifomem/n_53
*327 fifomem/n_54
*328 fifomem/n_55
*329 fifomem/n_56
*330 fifomem/n_57
*331 fifomem/n_58
*332 fifomem/n_59
*333 fifomem/n_60
*334 fifomem/n_61
*335 fifomem/n_62
*336 fifomem/n_63
*337 fifomem/n_64
*338 fifomem/n_65
*339 fifomem/n_66
*340 fifomem/n_67
*341 fifomem/n_68
*342 fifomem/n_69
*343 fifomem/n_70
*344 fifomem/n_71
*345 fifomem/n_72
*346 fifomem/n_73
*347 fifomem/n_74
*348 fifomem/n_75
*349 fifomem/n_76
*350 fifomem/n_77
*351 fifomem/n_78
*352 rptr_empty_inst/n_0
*353 rptr_empty_inst/n_1
*354 rptr_empty_inst/n_2
*355 rptr_empty_inst/n_3
*356 rptr_empty_inst/n_4
*357 rptr_empty_inst/n_5
*358 rptr_empty_inst/n_6
*359 rptr_empty_inst/n_7
*360 rptr_empty_inst/n_8
*361 rptr_empty_inst/n_9
*362 rptr_empty_inst/n_10
*363 rptr_empty_inst/n_11
*364 rptr_empty_inst/n_12
*365 rptr_empty_inst/n_13
*366 rptr_empty_inst/n_14
*367 rptr_empty_inst/n_15
*368 rptr_empty_inst/n_16
*369 rptr_empty_inst/n_17
*370 rptr_empty_inst/n_18
*371 rptr_empty_inst/n_19
*372 rptr_empty_inst/n_20
*373 rptr_empty_inst/n_21
*374 rptr_empty_inst/n_22
*375 rptr_empty_inst/n_23
*376 sync_r2w/q1[4]
*377 sync_r2w/q1[3]
*378 sync_r2w/q1[2]
*379 sync_r2w/q1[1]
*380 sync_r2w/q1[0]
*381 sync_w2r/q1[4]
*382 sync_w2r/q1[3]
*383 sync_w2r/q1[2]
*384 sync_w2r/q1[1]
*385 sync_w2r/q1[0]
*386 wptr_full_inst/n_0
*387 wptr_full_inst/n_1
*388 wptr_full_inst/n_3
*389 wptr_full_inst/n_4
*390 wptr_full_inst/n_5
*391 wptr_full_inst/n_8
*392 wptr_full_inst/n_9
*393 wptr_full_inst/n_10
*394 wptr_full_inst/n_12
*395 wptr_full_inst/n_13
*396 wptr_full_inst/n_17
*397 wptr_full_inst/n_18
*398 wptr_full_inst/n_19
*399 wptr_full_inst/n_20
*400 wptr_full_inst/n_21
*401 wptr_full_inst/n_23
*402 wptr_full_inst/n_25
*403 wptr_full_inst/n_29
*404 wptr_full_inst/n_30
*405 wptr_full_inst/n_46
*406 wptr_full_inst/n_47
*407 FE_PHC81_wdata_7
*408 FE_PHC76_rrst_n
*409 FE_PHC64_rrst_n
*410 FE_PHC63_wrst_n
*411 CTS_ccl_a_buf_00004
*412 FE_OCPC45_FE_OFN10_FE_OFN8_wfull
*413 FE_OFC10_FE_OFN8_wfull
*414 FE_OFC7_rdata_0
*415 FE_OFC6_rdata_1
*416 FE_OFC5_rdata_2
*417 FE_OFC4_rdata_3
*418 FE_OFC3_rdata_4
*419 FE_OFC2_rdata_5
*420 FE_OFC1_rdata_6
*421 FE_OFC0_rdata_7
*422 fifomem/FE_PHC80_wdata_3
*423 fifomem/FE_PHC79_wdata_4
*424 fifomem/FE_PHC78_wdata_3
*425 fifomem/FE_PHC75_wdata_3
*426 fifomem/FE_PHC74_wdata_4
*427 fifomem/FE_PHC73_wdata_5
*428 fifomem/FE_PHC72_wdata_4
*429 fifomem/FE_PHC71_wdata_5
*430 fifomem/FE_PHC70_wdata_1
*431 fifomem/FE_PHC69_wdata_0
*432 fifomem/FE_PHC68_wdata_2
*433 fifomem/FE_PHC67_wdata_3
*434 fifomem/FE_PHC66_wdata_6
*435 fifomem/FE_PHC65_wdata_7
*436 fifomem/FE_RC_62_0
*437 fifomem/FE_RC_61_0
*438 fifomem/FE_OCPC56_n_17
*439 fifomem/FE_OCPC55_n_12
*440 fifomem/FE_OCPC61_n_4
*441 fifomem/FE_OCPC60_FE_RN_3
*442 fifomem/FE_RC_60_0
*443 fifomem/FE_RC_29_0_dup
*444 fifomem/FE_OCPC59_FE_RN_2
*445 fifomem/FE_OCPC54_n_27
*446 fifomem/FE_OCPC51_FE_RN_3
*447 fifomem/FE_OCPC49_n_19
*448 fifomem/FE_OCPC48_n_29
*449 fifomem/FE_RC_55_0
*450 fifomem/FE_OCPC47_waddr_0
*451 fifomem/FE_OCPC46_waddr_0
*452 fifomem/CTS_ccl_a_buf_00006
*453 fifomem/FE_RC_51_0
*454 fifomem/FE_RC_50_0
*455 fifomem/FE_RC_47_0
*456 fifomem/FE_RC_46_0
*457 fifomem/FE_RC_44_0
*458 fifomem/FE_RC_43_0
*459 fifomem/FE_RC_42_0
*460 fifomem/g3047_dup
*461 fifomem/g3056_dup
*462 fifomem/FE_RC_29_0
*463 fifomem/g3061_dup
*464 fifomem/FE_OCPC16_n_15
*465 fifomem/FE_OCPC12_n_8
*466 fifomem/FE_OCPC32_n_31
*467 fifomem/FE_OCPC31_n_21
*468 fifomem/FE_OCPC28_n_0
*469 fifomem/FE_OCPC23_n_25
*470 fifomem/g5585
*471 fifomem/g5586
*472 fifomem/g5587
*473 fifomem/g5588
*474 fifomem/g5589
*475 fifomem/g5590
*476 fifomem/g5591
*477 fifomem/g5592
*478 fifomem/g5593
*479 fifomem/g5594
*480 fifomem/g5595
*481 fifomem/g5596
*482 fifomem/g5597
*483 fifomem/g5598
*484 fifomem/g5599
*485 fifomem/g5600
*486 fifomem/g5601
*487 fifomem/g5602
*488 fifomem/g5603
*489 fifomem/g5604
*490 fifomem/g5605
*491 fifomem/g5606
*492 fifomem/g5607
*493 fifomem/g5608
*494 fifomem/g5609
*495 fifomem/g5610
*496 fifomem/g5611
*497 fifomem/g5612
*498 fifomem/g5613
*499 fifomem/g5614
*500 fifomem/g5615
*501 fifomem/g5616
*502 fifomem/g5617
*503 fifomem/g5618
*504 fifomem/g5619
*505 fifomem/g5620
*506 fifomem/g5621
*507 fifomem/g5622
*508 fifomem/g5623
*509 fifomem/g5624
*510 fifomem/g5625
*511 fifomem/g5626
*512 fifomem/g5627
*513 fifomem/g5628
*514 fifomem/g5629
*515 fifomem/g5630
*516 fifomem/g5631
*517 fifomem/g5632
*518 fifomem/g5633
*519 fifomem/g5634
*520 fifomem/g5635
*521 fifomem/g5636
*522 fifomem/g5637
*523 fifomem/g5638
*524 fifomem/g5639
*525 fifomem/mem_reg\[0\]\[0\]
*526 fifomem/mem_reg\[0\]\[1\]
*527 fifomem/mem_reg\[0\]\[2\]
*528 fifomem/mem_reg\[0\]\[3\]
*529 fifomem/mem_reg\[0\]\[4\]
*530 fifomem/mem_reg\[0\]\[5\]
*531 fifomem/mem_reg\[0\]\[6\]
*532 fifomem/mem_reg\[0\]\[7\]
*533 fifomem/mem_reg\[1\]\[0\]
*534 fifomem/mem_reg\[1\]\[1\]
*535 fifomem/mem_reg\[1\]\[2\]
*536 fifomem/mem_reg\[1\]\[3\]
*537 fifomem/mem_reg\[1\]\[4\]
*538 fifomem/mem_reg\[1\]\[5\]
*539 fifomem/mem_reg\[1\]\[6\]
*540 fifomem/mem_reg\[1\]\[7\]
*541 fifomem/mem_reg\[2\]\[0\]
*542 fifomem/mem_reg\[2\]\[1\]
*543 fifomem/mem_reg\[2\]\[2\]
*544 fifomem/mem_reg\[2\]\[3\]
*545 fifomem/mem_reg\[2\]\[4\]
*546 fifomem/mem_reg\[2\]\[5\]
*547 fifomem/mem_reg\[2\]\[6\]
*548 fifomem/mem_reg\[2\]\[7\]
*549 fifomem/mem_reg\[3\]\[0\]
*550 fifomem/mem_reg\[3\]\[1\]
*551 fifomem/mem_reg\[3\]\[2\]
*552 fifomem/mem_reg\[3\]\[3\]
*553 fifomem/mem_reg\[3\]\[4\]
*554 fifomem/mem_reg\[3\]\[5\]
*555 fifomem/mem_reg\[3\]\[6\]
*556 fifomem/mem_reg\[3\]\[7\]
*557 fifomem/mem_reg\[4\]\[0\]
*558 fifomem/mem_reg\[4\]\[1\]
*559 fifomem/mem_reg\[4\]\[2\]
*560 fifomem/mem_reg\[4\]\[3\]
*561 fifomem/mem_reg\[4\]\[4\]
*562 fifomem/mem_reg\[4\]\[5\]
*563 fifomem/mem_reg\[4\]\[6\]
*564 fifomem/mem_reg\[4\]\[7\]
*565 fifomem/mem_reg\[5\]\[0\]
*566 fifomem/mem_reg\[5\]\[1\]
*567 fifomem/mem_reg\[5\]\[2\]
*568 fifomem/mem_reg\[5\]\[3\]
*569 fifomem/mem_reg\[5\]\[4\]
*570 fifomem/mem_reg\[5\]\[5\]
*571 fifomem/mem_reg\[5\]\[6\]
*572 fifomem/mem_reg\[5\]\[7\]
*573 fifomem/mem_reg\[6\]\[0\]
*574 fifomem/mem_reg\[6\]\[1\]
*575 fifomem/mem_reg\[6\]\[2\]
*576 fifomem/mem_reg\[6\]\[3\]
*577 fifomem/mem_reg\[6\]\[4\]
*578 fifomem/mem_reg\[6\]\[5\]
*579 fifomem/mem_reg\[6\]\[6\]
*580 fifomem/mem_reg\[6\]\[7\]
*581 fifomem/mem_reg\[7\]\[0\]
*582 fifomem/mem_reg\[7\]\[1\]
*583 fifomem/mem_reg\[7\]\[2\]
*584 fifomem/mem_reg\[7\]\[3\]
*585 fifomem/mem_reg\[7\]\[4\]
*586 fifomem/mem_reg\[7\]\[5\]
*587 fifomem/mem_reg\[7\]\[6\]
*588 fifomem/mem_reg\[7\]\[7\]
*589 fifomem/mem_reg\[8\]\[0\]
*590 fifomem/mem_reg\[8\]\[1\]
*591 fifomem/mem_reg\[8\]\[2\]
*592 fifomem/mem_reg\[8\]\[3\]
*593 fifomem/mem_reg\[8\]\[4\]
*594 fifomem/mem_reg\[8\]\[5\]
*595 fifomem/mem_reg\[8\]\[6\]
*596 fifomem/mem_reg\[8\]\[7\]
*597 fifomem/mem_reg\[9\]\[0\]
*598 fifomem/mem_reg\[9\]\[1\]
*599 fifomem/mem_reg\[9\]\[2\]
*600 fifomem/mem_reg\[9\]\[3\]
*601 fifomem/mem_reg\[9\]\[4\]
*602 fifomem/mem_reg\[9\]\[5\]
*603 fifomem/mem_reg\[9\]\[6\]
*604 fifomem/mem_reg\[9\]\[7\]
*605 fifomem/mem_reg\[10\]\[0\]
*606 fifomem/mem_reg\[10\]\[1\]
*607 fifomem/mem_reg\[10\]\[2\]
*608 fifomem/mem_reg\[10\]\[3\]
*609 fifomem/mem_reg\[10\]\[4\]
*610 fifomem/mem_reg\[10\]\[5\]
*611 fifomem/mem_reg\[10\]\[6\]
*612 fifomem/mem_reg\[10\]\[7\]
*613 fifomem/mem_reg\[11\]\[0\]
*614 fifomem/mem_reg\[11\]\[1\]
*615 fifomem/mem_reg\[11\]\[2\]
*616 fifomem/mem_reg\[11\]\[3\]
*617 fifomem/mem_reg\[11\]\[4\]
*618 fifomem/mem_reg\[11\]\[5\]
*619 fifomem/mem_reg\[11\]\[6\]
*620 fifomem/mem_reg\[11\]\[7\]
*621 fifomem/mem_reg\[12\]\[0\]
*622 fifomem/mem_reg\[12\]\[1\]
*623 fifomem/mem_reg\[12\]\[2\]
*624 fifomem/mem_reg\[12\]\[3\]
*625 fifomem/mem_reg\[12\]\[4\]
*626 fifomem/mem_reg\[12\]\[5\]
*627 fifomem/mem_reg\[12\]\[6\]
*628 fifomem/mem_reg\[12\]\[7\]
*629 fifomem/mem_reg\[13\]\[0\]
*630 fifomem/mem_reg\[13\]\[1\]
*631 fifomem/mem_reg\[13\]\[2\]
*632 fifomem/mem_reg\[13\]\[3\]
*633 fifomem/mem_reg\[13\]\[4\]
*634 fifomem/mem_reg\[13\]\[5\]
*635 fifomem/mem_reg\[13\]\[6\]
*636 fifomem/mem_reg\[13\]\[7\]
*637 fifomem/mem_reg\[14\]\[0\]
*638 fifomem/mem_reg\[14\]\[1\]
*639 fifomem/mem_reg\[14\]\[2\]
*640 fifomem/mem_reg\[14\]\[3\]
*641 fifomem/mem_reg\[14\]\[4\]
*642 fifomem/mem_reg\[14\]\[5\]
*643 fifomem/mem_reg\[14\]\[6\]
*644 fifomem/mem_reg\[14\]\[7\]
*645 fifomem/mem_reg\[15\]\[0\]
*646 fifomem/mem_reg\[15\]\[1\]
*647 fifomem/mem_reg\[15\]\[2\]
*648 fifomem/mem_reg\[15\]\[3\]
*649 fifomem/mem_reg\[15\]\[4\]
*650 fifomem/mem_reg\[15\]\[5\]
*651 fifomem/mem_reg\[15\]\[6\]
*652 fifomem/mem_reg\[15\]\[7\]
*653 fifomem/g3045
*654 fifomem/g3048
*655 fifomem/g3050
*656 fifomem/g3051
*657 fifomem/g3052
*658 fifomem/g3053
*659 fifomem/g3054
*660 fifomem/g3056
*661 fifomem/g3057
*662 fifomem/g3058
*663 fifomem/g3060
*664 fifomem/g3061
*665 fifomem/g3062
*666 fifomem/g3063
*667 fifomem/g3066
*668 fifomem/g3070
*669 fifomem/g3072
*670 fifomem/g3074
*671 fifomem/g3075
*672 fifomem/g3076
*673 fifomem/g3080
*674 rptr_empty_inst/FE_OFC9_rempty
*675 rptr_empty_inst/g188
*676 rptr_empty_inst/g189
*677 rptr_empty_inst/g190
*678 rptr_empty_inst/g191
*679 rptr_empty_inst/g192
*680 rptr_empty_inst/g193
*681 rptr_empty_inst/g194
*682 rptr_empty_inst/g195
*683 rptr_empty_inst/g196
*684 rptr_empty_inst/g197
*685 rptr_empty_inst/g198
*686 rptr_empty_inst/g199
*687 rptr_empty_inst/rptr_reg\[3\]
*688 rptr_empty_inst/rptr_reg\[4\]
*689 rptr_empty_inst/rptr_reg\[2\]
*690 rptr_empty_inst/g136
*691 rptr_empty_inst/g137
*692 rptr_empty_inst/g138
*693 rptr_empty_inst/rptr_reg\[1\]
*694 rptr_empty_inst/g140
*695 rptr_empty_inst/g141
*696 rptr_empty_inst/g142
*697 rptr_empty_inst/rptr_reg\[0\]
*698 rptr_empty_inst/g144
*699 rptr_empty_inst/g145
*700 rptr_empty_inst/g146
*701 rptr_empty_inst/g147
*702 rptr_empty_inst/g148
*703 rptr_empty_inst/g149
*704 rptr_empty_inst/g150
*705 rptr_empty_inst/g151
*706 rptr_empty_inst/g152
*707 rptr_empty_inst/g153
*708 rptr_empty_inst/g154
*709 sync_r2w/q2_reg\[4\]
*710 sync_r2w/q2_reg\[3\]
*711 sync_r2w/q2_reg\[1\]
*712 sync_r2w/q2_reg\[0\]
*713 sync_r2w/q2_reg\[2\]
*714 sync_r2w/q1_reg\[2\]
*715 sync_r2w/q1_reg\[3\]
*716 sync_r2w/q1_reg\[4\]
*717 sync_r2w/q1_reg\[1\]
*718 sync_r2w/q1_reg\[0\]
*719 sync_w2r/FE_PHC77_rrst_n
*720 sync_w2r/q2_reg\[4\]
*721 sync_w2r/q2_reg\[3\]
*722 sync_w2r/q2_reg\[1\]
*723 sync_w2r/q2_reg\[0\]
*724 sync_w2r/q2_reg\[2\]
*725 sync_w2r/q1_reg\[2\]
*726 sync_w2r/q1_reg\[3\]
*727 sync_w2r/q1_reg\[4\]
*728 sync_w2r/q1_reg\[1\]
*729 sync_w2r/q1_reg\[0\]
*730 wptr_full_inst/FE_RC_64_0
*731 wptr_full_inst/FE_RC_63_0
*732 wptr_full_inst/g153_dup
*733 wptr_full_inst/FE_OCPC58_n_5
*734 wptr_full_inst/FE_RC_59_0
*735 wptr_full_inst/FE_RC_58_0
*736 wptr_full_inst/FE_RC_57_0
*737 wptr_full_inst/FE_RC_56_0
*738 wptr_full_inst/FE_OCPC57_waddr_2
*739 wptr_full_inst/FE_OCPC56_waddr_3
*740 wptr_full_inst/FE_OCPC45_waddr_0
*741 wptr_full_inst/FE_RC_54_0
*742 wptr_full_inst/FE_RC_53_0
*743 wptr_full_inst/FE_RC_52_0
*744 wptr_full_inst/FE_OCPC44_wptr_4
*745 wptr_full_inst/FE_RC_19_0_dup
*746 wptr_full_inst/FE_RC_41_0
*747 wptr_full_inst/FE_RC_40_0
*748 wptr_full_inst/FE_RC_39_0
*749 wptr_full_inst/FE_RC_38_0
*750 wptr_full_inst/FE_RC_37_0
*751 wptr_full_inst/FE_RC_36_0
*752 wptr_full_inst/FE_RC_35_0
*753 wptr_full_inst/FE_RC_34_0
*754 wptr_full_inst/FE_RC_27_0
*755 wptr_full_inst/FE_OCPC37_waddr_1
*756 wptr_full_inst/FE_RC_23_0
*757 wptr_full_inst/FE_RC_22_0
*758 wptr_full_inst/FE_RC_21_0
*759 wptr_full_inst/FE_RC_20_0
*760 wptr_full_inst/FE_RC_18_0
*761 wptr_full_inst/FE_RC_17_0
*762 wptr_full_inst/FE_RC_15_0
*763 wptr_full_inst/FE_RC_14_0
*764 wptr_full_inst/FE_RC_13_0
*765 wptr_full_inst/FE_RC_11_0
*766 wptr_full_inst/FE_RC_6_0
*767 wptr_full_inst/FE_OCPC20_waddr_2
*768 wptr_full_inst/FE_RC_4_0
*769 wptr_full_inst/FE_RC_3_0
*770 wptr_full_inst/FE_RC_2_0
*771 wptr_full_inst/FE_OFC18_n_17
*772 wptr_full_inst/FE_OFC17_n_17
*773 wptr_full_inst/FE_OFC16_n_10
*774 wptr_full_inst/g208
*775 wptr_full_inst/g215
*776 wptr_full_inst/wptr_reg\[3\]
*777 wptr_full_inst/g138
*778 wptr_full_inst/wptr_reg\[2\]
*779 wptr_full_inst/wptr_reg\[1\]
*780 wptr_full_inst/g147
*781 wptr_full_inst/wptr_reg\[0\]
*782 wptr_full_inst/g152
*783 wptr_full_inst/g153
*784 wptr_full_inst/g156
*785 wptr_full_inst/g157
*786 wptr_full_inst/g160
*787 wptr_full_inst/g218
*788 wptr_full_inst/g219
*789 wptr_full_inst/wptr_reg\[4\]
*790 rdata_reg\[7\]
*791 rdata_reg\[6\]
*792 rdata_reg\[4\]
*793 rdata_reg\[0\]
*794 rdata_reg\[3\]
*795 rdata_reg\[5\]
*796 rdata_reg\[2\]
*797 rdata_reg\[1\]


*PORTS

*106 O *C 84.39 83.81
*107 O *C 56.26 83.81
*108 O *C 28.13 83.81
*109 O *C 0 83.81
*110 O *C 0 59.86
*111 O *C 0 47.89
*112 O *C 0 35.915
*113 O *C 0 23.945
*114 O *C 84.39 0
*115 O *C 0 83.805
*92 I *C 50.635 0
*93 I *C 33.755 0
*94 I *C 16.88 0
*95 I *C 0 0
*96 I *C 84.39 83.81
*97 I *C 84.39 67.05
*98 I *C 84.39 50.285
*99 I *C 84.39 33.525
*100 I *C 67.51 0
*101 I *C 84.39 0
*102 I *C 84.39 16.76
*103 I *C 0 71.835
*104 I *C 0 0
*105 I *C 0 11.97


*D_NET *1 0.0178541

*CONN
*I *407:Y O *C 73.515 52.635 *L 0 *D CLKBUFX2
*I *532:D I *C 69.165 62.785 *L 0.00181 *D SDFFQXL
*I *540:D I *C 68.875 54.955 *L 0.00181 *D SDFFQXL
*I *548:D I *C 61.045 62.785 *L 0.00181 *D SDFFQXL
*I *556:SI I *C 62.205 52.345 *L 0.00169 *D SDFFQXL
*I *564:SI I *C 26.245 57.565 *L 0.00169 *D SDFFQXL
*I *572:SI I *C 26.825 62.785 *L 0.00169 *D SDFFQXL
*I *580:SI I *C 13.775 65.395 *L 0.00169 *D SDFFQXL
*I *588:SI I *C 16.965 68.005 *L 0.00169 *D SDFFQXL
*I *596:D I *C 69.165 65.395 *L 0.00181 *D SDFFQXL
*I *604:D I *C 69.165 57.565 *L 0.00181 *D SDFFQXL
*I *612:D I *C 60.465 57.565 *L 0.00181 *D SDFFQXL
*I *620:D I *C 61.045 60.175 *L 0.00181 *D SDFFQXL
*I *628:D I *C 25.085 52.345 *L 0.00181 *D SDFFQXL
*I *636:D I *C 25.085 54.955 *L 0.00183 *D SDFFQX1
*I *644:SI I *C 14.355 78.445 *L 0.00169 *D SDFFQXL
*I *435:A I *C 18.995 68.005 *L 0.00172 *D CLKBUFX2

*CAP
1 *407:Y 1.32615e-05
2 *532:D 4.40846e-05
3 *540:D 4.40846e-05
4 *548:D 4.40846e-05
5 *556:SI 4.40846e-05
6 *564:SI 4.40846e-05
7 *572:SI 4.40846e-05
8 *580:SI 4.40846e-05
9 *588:SI 4.40846e-05
10 *596:D 4.40846e-05
11 *604:D 4.40846e-05
12 *612:D 4.40846e-05
13 *620:D 4.40846e-05
14 *628:D 4.40846e-05
15 *636:D 4.40846e-05
16 *644:SI 4.40846e-05
17 *435:A 4.40846e-05
18 *1:17 0.000160123
19 *1:18 0.000119765
20 *1:19 0.000538039
21 *1:20 0.000120363
22 *1:21 0.000816818
23 *1:22 7.62288e-05
24 *1:23 7.62288e-05
25 *1:24 0.000399154
26 *1:25 7.36114e-05
27 *1:26 7.36114e-05
28 *1:27 0.000409537
29 *1:28 0.000422026
30 *1:29 0.000125124
31 *1:30 7.29509e-05
32 *1:31 6.04621e-05
33 *1:32 5.65609e-05
34 *1:33 0.000110941
35 *1:34 0.000101917
36 *1:35 0.000146525
37 *1:36 7.59173e-05
38 *1:37 0.000194261
39 *1:38 0.000194249
40 *1:39 0.000279352
41 *1:40 0.000279352
42 *1:41 0.000297238
43 *1:42 0.000297238
44 *1:43 4.18162e-05
45 *1:44 5.83183e-05
46 *1:45 0.000544869
47 *1:46 0.000544869
48 *1:47 5.02044e-05
49 *1:48 3.91739e-05
50 *1:49 0.000142499
51 *1:50 0.000137401
52 *1:51 0.000233921
53 *1:52 0.000233921
54 *1:53 0.000175964
55 *1:54 0.000180713
56 *1:55 0.000268259
57 *1:56 0.000225396
58 *1:57 0.000331513
59 *1:58 0.000315485
60 *1:59 3.90741e-05
61 *1:60 6.81523e-05
62 *1:61 0.000125449
63 *1:62 0.000125449
64 *1:63 6.53853e-05
65 *1:64 0.000290594
66 *1:65 0.000324097
67 *1:66 7.02088e-05
68 *1:67 7.95816e-05
69 *1:68 0.000102415
70 *1:69 0.000102415
71 *1:70 0.000101904
72 *1:71 0.000112125
73 *1:72 0.000132241
74 *1:73 0.000132241
75 *1:74 0.000168536
76 *1:75 0.000168536
77 *1:76 9.11107e-05
78 *1:77 9.98852e-05
79 *1:78 9.98852e-05
80 *1:79 0.000214042
81 *1:80 0.000214042
82 *1:81 0.000106304
83 *1:82 0.000111888
84 *1:83 0.000111888
85 *1:84 0.000228076
86 *1:85 0.000221844
87 *1:86 0.000158316
88 *1:87 0.000164535
89 *1:89 8.42805e-05
90 *1:90 8.58883e-05
91 *1:91 0.000201067
92 *1:92 0.000188428
93 *1:93 4.59417e-05
94 *1:55 *152:12 8.25826e-06
95 *1:56 *152:10 8.26376e-06
96 *1:57 *152:13 6.02688e-05
97 *1:58 *152:11 6.02688e-05
98 *1:59 *152:13 2.00896e-05
99 *1:60 *152:11 2.00951e-05
100 *1:61 *152:13 8.26156e-05
101 *1:62 *152:11 8.26211e-05
102 *1:60 *152:3 9.16116e-06
103 *1:63 *152:4 9.16116e-06
104 *1:45 *208:7 5.78308e-05
105 *1:46 *208:8 5.78308e-05
106 *1:45 *208:8 9.0877e-05
107 *1:46 *208:9 9.08818e-05
108 *1:47 *208:5 7.86018e-06
109 *1:48 *208:6 7.86018e-06
110 *1:39 *295:56 2.0084e-05
111 *1:40 *295:50 2.0084e-05
112 *1:74 *295:56 0.000301357
113 *1:75 *295:50 0.000301357
114 *1:72 *295:56 4.13081e-05
115 *1:73 *295:50 4.13081e-05
116 *1:27 *295:56 0.000132195
117 *1:28 *295:50 0.000132195
118 *1:27 *295:50 0.000132171
119 *1:28 *295:51 0.000132195
120 *1:27 *295:52 7.4369e-05
121 *1:28 *295:53 7.43448e-05
122 *1:27 *295:77 2.47897e-05
123 *1:28 *295:48 2.47897e-05
124 *1:27 *295:48 8.27131e-06
125 *1:28 *295:49 8.27131e-06
126 *1:43 *295:54 2.0084e-05
127 *1:44 *295:55 2.0084e-05
128 *1:44 *295:54 4.01923e-05
129 *1:81 *295:55 4.0168e-05
130 *1:27 *245:15 0.000132188
131 *1:28 *245:7 0.000132188
132 *1:27 *245:7 5.78335e-05
133 *1:28 *245:5 5.78277e-05
134 *1:32 *264:10 9.15875e-06
135 *1:33 *264:9 9.16175e-06
136 *1:34 *264:8 3.75074e-05
137 *1:35 *264:6 3.75074e-05
138 *1:35 *264:8 2.67897e-05
139 *1:36 *264:6 2.67867e-05
140 *1:37 *264:8 1.65217e-05
141 *1:38 *264:6 1.65187e-05
142 *1:32 *264:8 8.25937e-06
143 *1:33 *264:6 8.25937e-06
144 *1:53 *256:17 2.47881e-05
145 *1:54 *256:16 2.47926e-05
146 *1:37 *256:3 8.03535e-05
147 *1:38 *256:4 8.03579e-05
148 *1:37 *256:15 4.1312e-05
149 *1:38 *256:14 4.13075e-05
150 *1:70 *160:13 9.16083e-06
151 *1:71 *160:3 9.16083e-06
152 *1:57 *160:3 0.000123249
153 *1:58 *160:4 0.000123253

*RES
1 *1:53 *596:D 1.40001
2 *1:54 *532:D 1.40001
3 *1:54 *1:53 1.11855
4 *1:37 *1:54 0.124255
5 *1:38 *1:37 1.36715
6 *1:38 *1:34 0.124255
7 *1:35 *604:D 1.40001
8 *1:35 *1:34 0.869958
9 *1:36 *1:35 0.621448
10 *1:93 *407:Y 0.193296
11 *1:32 *1:36 0.124255
12 *1:26 *1:93 1.40001
13 *1:33 *540:D 1.40001
14 *1:33 *1:32 0.497107
15 *1:26 *1:25 0.372851
16 *1:23 *556:SI 1.40001
17 *1:76 *1:33 0.621448
18 *1:24 *1:25 1.40001
19 *1:23 *1:22 0.497107
20 *1:21 *1:76 1.40001
21 *1:21 *1:24 1.86426
22 *1:19 *1:22 1.40001
23 *1:19 *1:21 2.85856
24 *1:20 *1:19 0.372851
25 *1:48 *612:D 1.40001
26 *1:87 *1:20 1.40001
27 *1:48 *1:47 0.248596
28 *1:92 *548:D 1.40001
29 *1:87 *1:86 0.994299
30 *1:47 *1:89 0.248596
31 *1:91 *620:D 1.40001
32 *1:91 *1:92 1.11855
33 *1:85 *1:86 0.124255
34 *1:89 *1:90 0.497107
35 *1:90 *1:91 0.372851
36 *1:85 *1:84 1.49141
37 *1:45 *1:90 1.40001
38 *1:45 *1:84 1.40001
39 *1:46 *1:45 4.4743
40 *1:70 *644:SI 1.40001
41 *1:41 *1:46 1.40001
42 *1:71 *1:70 0.372851
43 *1:42 *1:41 1.2429
44 *1:57 *1:71 0.248596
45 *1:30 *1:42 1.40001
46 *1:58 *1:57 3.23141
47 *1:31 *1:30 0.372851
48 *1:61 *1:58 0.124255
49 *1:31 *1:39 0.0621277
50 *1:62 *1:61 1.2429
51 *1:40 *1:39 1.9886
52 *1:63 *580:SI 1.40001
53 *1:62 *1:59 0.124255
54 *1:72 *1:40 0.0621277
55 *1:82 *588:SI 1.40001
56 *1:63 *1:60 0.372851
57 *1:60 *1:59 0.372851
58 *1:73 *1:72 0.621448
59 *1:83 *1:82 0.745703
60 *1:56 *1:60 1.40001
61 *1:73 *1:74 0.0621277
62 *1:55 *1:83 1.40001
63 *1:56 *1:55 1.36715
64 *1:18 *628:D 1.40001
65 *1:75 *1:74 1.86426
66 *1:68 *435:A 1.40001
67 *1:55 *1:67 0.497107
68 *1:17 *636:D 1.40001
69 *1:18 *1:17 1.11855
70 *1:27 *1:75 0.0621277
71 *1:69 *1:68 0.621448
72 *1:67 *1:66 0.124255
73 *1:17 *1:29 0.621448
74 *1:28 *1:27 5.59286
75 *1:65 *1:69 1.40001
76 *1:66 *1:65 0.372851
77 *1:29 *1:81 0.497107
78 *1:81 *1:28 1.40001
79 *1:65 *1:64 1.74
80 *1:44 *564:SI 1.40001
81 *1:81 *1:44 0.497107
82 *1:79 *1:64 1.40001
83 *1:44 *1:43 0.372851
84 *1:80 *1:79 1.61575
85 *1:43 *1:78 0.124255
86 *1:52 *1:80 1.40001
87 *1:78 *1:77 0.745703
88 *1:52 *1:51 1.61575
89 *1:77 *1:50 0.124255
90 *1:49 *572:SI 1.40001
91 *1:49 *1:51 1.40001
92 *1:50 *1:49 1.11855
93 *1:88 *1:49 0.19304
*END

*D_NET *2 0.00280698

*CONN
*I *422:Y O *C 54.665 54.665 *L 0 *D CLKBUFX2
*I *552:SI I *C 52.925 73.225 *L 0.00169 *D SDFFQXL

*CAP
1 *422:Y 4.40901e-05
2 *552:SI 4.40901e-05
3 *2:2 4.25108e-05
4 *2:3 4.25108e-05
5 *2:4 0.000129918
6 *2:5 0.000129918
7 *2:6 8.7769e-05
8 *2:7 8.7769e-05
9 *2:8 0.00107815
10 *2:9 0.00107815
11 *2:13 4.21159e-05

*RES
1 *2:6 *422:Y 1.39998
2 *2:7 *2:6 0.372869
3 *2:12 *2:13 0.193005
4 *2:13 *2:7 1.39998
5 *2:9 *2:13 1.39998
6 *2:9 *2:8 8.20286
7 *2:4 *2:8 1.39998
8 *2:2 *552:SI 1.39998
9 *2:11 *2:2 0.193381
10 *2:5 *2:4 0.745737
11 *2:3 *2:2 0.12429
12 *2:3 *2:5 1.39998
13 *2:10 *2:3 0.0728464
*END

*D_NET *3 0.00073416

*CONN
*I *423:Y O *C 10.585 52.635 *L 0 *D CLKBUFX2
*I *585:SI I *C 12.035 49.735 *L 0.00169 *D SDFFQXL

*CAP
1 *423:Y 4.40804e-05
2 *585:SI 4.40804e-05
3 *3:2 8.46778e-05
4 *3:3 0.00010156
5 *3:4 8.46799e-05
6 *3:5 0.000136759
7 *3:6 0.000136761
8 *3:7 0.000101562

*RES
1 *3:5 *585:SI 1.4
2 *3:5 *3:6 0.497144
3 *3:7 *3:6 1.4
4 *3:3 *3:7 0.621429
5 *3:4 *423:Y 1.4
6 *3:2 *3:3 1.4
7 *3:2 *3:4 0.745715
*END

*D_NET *4 0.00318062

*CONN
*I *424:Y O *C 41.615 63.075 *L 0 *D CLKBUFX2
*I *640:SI I *C 45.965 78.445 *L 0.00169 *D SDFFQXL

*CAP
1 *424:Y 4.40842e-05
2 *640:SI 4.40842e-05
3 *4:2 0.000871175
4 *4:3 0.00087627
5 *4:4 0.000109241
6 *4:5 0.000114336
7 *4:6 0.000464456
8 *4:7 9.62713e-05
9 *4:8 0.000464456
10 *4:9 9.62713e-05

*RES
1 *4:9 *640:SI 1.40002
2 *4:7 *4:9 0.621436
3 *4:8 *4:7 1.40002
4 *4:6 *4:8 1.98856
5 *4:3 *424:Y 1.40002
6 *4:5 *4:6 1.40002
7 *4:3 *4:2 5.22
8 *4:4 *4:5 0.745691
9 *4:4 *4:2 0.124255
*END

*D_NET *5 0.00452898

*CONN
*I *719:Y O *C 7.685 41.615 *L 0 *D DLY1X1
*I *727:RN I *C 6.525 10.585 *L 0.00433 *D DFFRHQX1

*CAP
1 *719:Y 4.4082e-05
2 *727:RN 4.4082e-05
3 *5:2 0.000240142
4 *5:3 0.000240142
5 *5:4 0.000175188
6 *5:5 0.000175188
7 *5:6 6.07914e-05
8 *5:7 7.65883e-05
9 *5:8 0.000175317
10 *5:9 0.000169281
11 *5:10 7.13703e-05
12 *5:11 8.77975e-05
13 *5:12 0.000157739
14 *5:13 0.000142568
15 *5:14 0.000111799
16 *5:15 0.000144672
17 *5:16 0.000136892
18 *5:17 0.000120461
19 *5:18 0.000124749
20 *5:19 9.72918e-05
21 *5:19 *83:2 7.43593e-05
22 *5:18 *83:3 7.43593e-05
23 *5:19 *83:4 2.00869e-05
24 *5:18 *83:5 2.00959e-05
25 *5:17 *83:4 6.96568e-05
26 *5:16 *83:5 6.96568e-05
27 *5:15 *83:4 5.10984e-05
28 *5:14 *83:5 5.10984e-05
29 *5:13 *83:4 2.35846e-05
30 *5:12 *83:5 2.35756e-05
31 *5:11 *83:4 1.83336e-05
32 *5:10 *83:5 1.83336e-05
33 *5:2 *83:6 3.75034e-05
34 *5:3 *83:7 3.75123e-05